# generated using pymatgen
data_SrCu2GeSe4
_symmetry_space_group_name_H-M   'P 1'
_cell_length_a   6.35397519
_cell_length_b   6.35397519
_cell_length_c   10.89029700
_cell_angle_alpha   90.00000000
_cell_angle_beta   90.00000000
_cell_angle_gamma   117.21154186
_symmetry_Int_Tables_number   1
_chemical_formula_structural   SrCu2GeSe4
_chemical_formula_sum   'Sr2 Cu4 Ge2 Se8'
_cell_volume   391.01273384
_cell_formula_units_Z   2
loop_
 _symmetry_equiv_pos_site_id
 _symmetry_equiv_pos_as_xyz
  1  'x, y, z'
loop_
 _atom_site_type_symbol
 _atom_site_label
 _atom_site_symmetry_multiplicity
 _atom_site_fract_x
 _atom_site_fract_y
 _atom_site_fract_z
 _atom_site_occupancy
  Sr  Sr0  1  0.012568  0.012568  0.500000  1
  Sr  Sr1  1  0.012568  0.012568  0.000000  1
  Cu  Cu2  1  0.631533  0.191291  0.629822  1
  Cu  Cu3  1  0.191291  0.631533  0.370178  1
  Cu  Cu4  1  0.191291  0.631533  0.129822  1
  Cu  Cu5  1  0.631533  0.191291  0.870178  1
  Ge  Ge6  1  0.263641  0.558580  0.750000  1
  Ge  Ge7  1  0.558580  0.263641  0.250000  1
  Se  Se8  1  0.302407  0.197255  0.750000  1
  Se  Se9  1  0.197255  0.302407  0.250000  1
  Se  Se10  1  0.010736  0.520701  0.575833  1
  Se  Se11  1  0.520701  0.010736  0.424167  1
  Se  Se12  1  0.010736  0.520701  0.924167  1
  Se  Se13  1  0.520701  0.010736  0.075833  1
  Se  Se14  1  0.873589  0.664274  0.250000  1
  Se  Se15  1  0.664274  0.873589  0.750000  1
