# generated using pymatgen
data_Li2CaHfF8
_symmetry_space_group_name_H-M   'P 1'
_cell_length_a   6.44552797
_cell_length_b   6.44552797
_cell_length_c   6.44552797
_cell_angle_alpha   132.64765480
_cell_angle_beta   132.64765480
_cell_angle_gamma   69.20802997
_symmetry_Int_Tables_number   1
_chemical_formula_structural   Li2CaHfF8
_chemical_formula_sum   'Li2 Ca1 Hf1 F8'
_cell_volume   142.16811318
_cell_formula_units_Z   1
loop_
 _symmetry_equiv_pos_site_id
 _symmetry_equiv_pos_as_xyz
  1  'x, y, z'
loop_
 _atom_site_type_symbol
 _atom_site_label
 _atom_site_symmetry_multiplicity
 _atom_site_fract_x
 _atom_site_fract_y
 _atom_site_fract_z
 _atom_site_occupancy
  Li  Li0  1  0.750000  0.250000  0.500000  1
  Li  Li1  1  0.000000  0.000000  0.000000  1
  Ca  Ca2  1  0.500000  0.500000  0.000000  1
  Hf  Hf3  1  0.250000  0.750000  0.500000  1
  F  F4  1  0.490948  0.467251  0.597855  1
  F  F5  1  0.237145  0.798690  0.857042  1
  F  F6  1  0.532749  0.130604  0.023698  1
  F  F7  1  0.106907  0.509052  0.976302  1
  F  F8  1  0.869396  0.893093  0.402145  1
  F  F9  1  0.201310  0.058352  0.438455  1
  F  F10  1  0.941648  0.380103  0.142958  1
  F  F11  1  0.619897  0.762855  0.561545  1
