# generated using pymatgen
data_Mg2VN3
_symmetry_space_group_name_H-M   'P 1'
_cell_length_a   5.75123937
_cell_length_b   5.75123937
_cell_length_c   5.11987700
_cell_angle_alpha   90.00000000
_cell_angle_beta   90.00000000
_cell_angle_gamma   119.17427117
_symmetry_Int_Tables_number   1
_chemical_formula_structural   Mg2VN3
_chemical_formula_sum   'Mg4 V2 N6'
_cell_volume   147.86549039
_cell_formula_units_Z   2
loop_
 _symmetry_equiv_pos_site_id
 _symmetry_equiv_pos_as_xyz
  1  'x, y, z'
loop_
 _atom_site_type_symbol
 _atom_site_label
 _atom_site_symmetry_multiplicity
 _atom_site_fract_x
 _atom_site_fract_y
 _atom_site_fract_z
 _atom_site_occupancy
  Mg  Mg0  1  0.668791  0.998559  0.521339  1
  Mg  Mg1  1  0.998559  0.668791  0.521339  1
  Mg  Mg2  1  0.331209  0.001441  0.021339  1
  Mg  Mg3  1  0.001441  0.331209  0.021339  1
  V  V4  1  0.336565  0.336565  0.517691  1
  V  V5  1  0.663435  0.663435  0.017691  1
  N  N6  1  0.667694  0.964959  0.106784  1
  N  N7  1  0.964959  0.667694  0.106784  1
  N  N8  1  0.332306  0.035041  0.606784  1
  N  N9  1  0.035041  0.332306  0.606784  1
  N  N10  1  0.363505  0.363505  0.154063  1
  N  N11  1  0.636495  0.636495  0.654063  1
