# generated using pymatgen
data_CaSnN2
_symmetry_space_group_name_H-M   'P 1'
_cell_length_a   5.69174700
_cell_length_b   6.19344600
_cell_length_c   7.70403400
_cell_angle_alpha   90.00000000
_cell_angle_beta   90.00000000
_cell_angle_gamma   90.00000000
_symmetry_Int_Tables_number   1
_chemical_formula_structural   CaSnN2
_chemical_formula_sum   'Ca4 Sn4 N8'
_cell_volume   271.57896788
_cell_formula_units_Z   4
loop_
 _symmetry_equiv_pos_site_id
 _symmetry_equiv_pos_as_xyz
  1  'x, y, z'
loop_
 _atom_site_type_symbol
 _atom_site_label
 _atom_site_symmetry_multiplicity
 _atom_site_fract_x
 _atom_site_fract_y
 _atom_site_fract_z
 _atom_site_occupancy
  Ca  Ca0  1  0.980097  0.584865  0.877126  1
  Ca  Ca1  1  0.480097  0.415135  0.122874  1
  Ca  Ca2  1  0.480097  0.915135  0.377126  1
  Ca  Ca3  1  0.980097  0.084865  0.622874  1
  Sn  Sn4  1  0.994615  0.569948  0.372935  1
  Sn  Sn5  1  0.494615  0.430052  0.627065  1
  Sn  Sn6  1  0.494615  0.930052  0.872935  1
  Sn  Sn7  1  0.994615  0.069948  0.127065  1
  N  N8  1  0.361426  0.550731  0.395524  1
  N  N9  1  0.861426  0.449269  0.604476  1
  N  N10  1  0.861426  0.949269  0.895524  1
  N  N11  1  0.361426  0.050731  0.104476  1
  N  N12  1  0.404862  0.600480  0.854403  1
  N  N13  1  0.904862  0.399520  0.145597  1
  N  N14  1  0.904862  0.899520  0.354403  1
  N  N15  1  0.404862  0.100480  0.645597  1
