# generated using pymatgen
data_ZnSiN2
_symmetry_space_group_name_H-M   'P 1'
_cell_length_a   5.06873500
_cell_length_b   5.29118800
_cell_length_c   6.31269600
_cell_angle_alpha   90.00000000
_cell_angle_beta   90.00000000
_cell_angle_gamma   90.00000000
_symmetry_Int_Tables_number   1
_chemical_formula_structural   ZnSiN2
_chemical_formula_sum   'Zn4 Si4 N8'
_cell_volume   169.30416981
_cell_formula_units_Z   4
loop_
 _symmetry_equiv_pos_site_id
 _symmetry_equiv_pos_as_xyz
  1  'x, y, z'
loop_
 _atom_site_type_symbol
 _atom_site_label
 _atom_site_symmetry_multiplicity
 _atom_site_fract_x
 _atom_site_fract_y
 _atom_site_fract_z
 _atom_site_occupancy
  Zn  Zn0  1  0.994462  0.916974  0.375937  1
  Zn  Zn1  1  0.494462  0.083026  0.624063  1
  Zn  Zn2  1  0.494462  0.583026  0.875937  1
  Zn  Zn3  1  0.994462  0.416974  0.124063  1
  Si  Si4  1  0.493875  0.571974  0.374925  1
  Si  Si5  1  0.993875  0.428026  0.625075  1
  Si  Si6  1  0.993875  0.928026  0.874925  1
  Si  Si7  1  0.493875  0.071974  0.125075  1
  N  N8  1  0.148651  0.555731  0.401751  1
  N  N9  1  0.648651  0.444269  0.598249  1
  N  N10  1  0.648651  0.944269  0.901751  1
  N  N11  1  0.148651  0.055731  0.098249  1
  N  N12  1  0.089012  0.609037  0.847141  1
  N  N13  1  0.589012  0.390963  0.152859  1
  N  N14  1  0.589012  0.890963  0.347141  1
  N  N15  1  0.089012  0.109037  0.652859  1
