# generated using pymatgen
data_TaZn2N3
_symmetry_space_group_name_H-M   'P 1'
_cell_length_a   5.74133543
_cell_length_b   5.74133543
_cell_length_c   5.44606500
_cell_angle_alpha   90.00000000
_cell_angle_beta   90.00000000
_cell_angle_gamma   119.36960639
_symmetry_Int_Tables_number   1
_chemical_formula_structural   TaZn2N3
_chemical_formula_sum   'Ta2 Zn4 N6'
_cell_volume   156.44552526
_cell_formula_units_Z   2
loop_
 _symmetry_equiv_pos_site_id
 _symmetry_equiv_pos_as_xyz
  1  'x, y, z'
loop_
 _atom_site_type_symbol
 _atom_site_label
 _atom_site_symmetry_multiplicity
 _atom_site_fract_x
 _atom_site_fract_y
 _atom_site_fract_z
 _atom_site_occupancy
  Ta  Ta0  1  0.331136  0.331136  0.512608  1
  Ta  Ta1  1  0.668864  0.668864  0.012608  1
  Zn  Zn2  1  0.666558  0.010788  0.501957  1
  Zn  Zn3  1  0.010788  0.666558  0.501957  1
  Zn  Zn4  1  0.333442  0.989212  0.001957  1
  Zn  Zn5  1  0.989212  0.333442  0.001957  1
  N  N6  1  0.670340  0.988569  0.124744  1
  N  N7  1  0.988569  0.670340  0.124744  1
  N  N8  1  0.329660  0.011431  0.624744  1
  N  N9  1  0.011431  0.329660  0.624744  1
  N  N10  1  0.346940  0.346940  0.145990  1
  N  N11  1  0.653060  0.653060  0.645990  1
