# generated using pymatgen
data_TiFeO3
_symmetry_space_group_name_H-M   'P 1'
_cell_length_a   5.19840935
_cell_length_b   5.52177197
_cell_length_c   5.19711073
_cell_angle_alpha   90.01277699
_cell_angle_beta   60.00543144
_cell_angle_gamma   61.96645431
_symmetry_Int_Tables_number   1
_chemical_formula_structural   TiFeO3
_chemical_formula_sum   'Ti2 Fe2 O6'
_cell_volume   108.51128827
_cell_formula_units_Z   2
loop_
 _symmetry_equiv_pos_site_id
 _symmetry_equiv_pos_as_xyz
  1  'x, y, z'
loop_
 _atom_site_type_symbol
 _atom_site_label
 _atom_site_symmetry_multiplicity
 _atom_site_fract_x
 _atom_site_fract_y
 _atom_site_fract_z
 _atom_site_occupancy
  Ti  Ti0  1  0.995394  0.006936  0.001999  1
  Ti  Ti1  1  0.995250  0.506895  0.502788  1
  Fe  Fe2  1  0.422730  0.865889  0.288611  1
  Fe  Fe3  1  0.422527  0.365884  0.788472  1
  O  O4  1  0.169231  0.688331  0.222968  1
  O  O5  1  0.919770  0.188153  0.723088  1
  O  O6  1  0.169244  0.188680  0.107733  1
  O  O7  1  0.919011  0.688682  0.857621  1
  O  O8  1  0.534579  0.688397  0.607827  1
  O  O9  1  0.534664  0.188551  0.357693  1
