# generated using pymatgen
data_Sr6Y2Al4O15
_symmetry_space_group_name_H-M   'P 1'
_cell_length_a   9.34672441
_cell_length_b   9.34672441
_cell_length_c   7.77352640
_cell_angle_alpha   89.38691660
_cell_angle_beta   89.38691660
_cell_angle_gamma   36.14414214
_symmetry_Int_Tables_number   1
_chemical_formula_structural   Sr6Y2Al4O15
_chemical_formula_sum   'Sr6 Y2 Al4 O15'
_cell_volume   400.52346468
_cell_formula_units_Z   1
loop_
 _symmetry_equiv_pos_site_id
 _symmetry_equiv_pos_as_xyz
  1  'x, y, z'
loop_
 _atom_site_type_symbol
 _atom_site_label
 _atom_site_symmetry_multiplicity
 _atom_site_fract_x
 _atom_site_fract_y
 _atom_site_fract_z
 _atom_site_occupancy
  Sr  Sr0  1  0.687351  0.657223  0.495654  1
  Sr  Sr1  1  0.342777  0.312649  0.504346  1
  Sr  Sr2  1  0.691092  0.627118  0.034492  1
  Sr  Sr3  1  0.372882  0.308908  0.965508  1
  Sr  Sr4  1  0.973935  0.026065  0.000000  1
  Sr  Sr5  1  0.904811  0.095189  0.500000  1
  Y  Y6  1  0.849889  0.835378  0.246784  1
  Y  Y7  1  0.164622  0.150111  0.753216  1
  Al  Al8  1  0.827784  0.791011  0.755381  1
  Al  Al9  1  0.208989  0.172216  0.244619  1
  Al  Al10  1  0.481829  0.545175  0.773608  1
  Al  Al11  1  0.454825  0.518171  0.226392  1
  O  O12  1  0.862315  0.863057  0.948319  1
  O  O13  1  0.136943  0.137685  0.051681  1
  O  O14  1  0.046584  0.474161  0.764345  1
  O  O15  1  0.525839  0.953416  0.235656  1
  O  O16  1  0.534246  0.945745  0.772221  1
  O  O17  1  0.054255  0.465754  0.227779  1
  O  O18  1  0.759417  0.418708  0.743203  1
  O  O19  1  0.581292  0.240583  0.256797  1
  O  O20  1  0.227093  0.859902  0.727215  1
  O  O21  1  0.140098  0.772907  0.272785  1
  O  O22  1  0.512269  0.348148  0.691296  1
  O  O23  1  0.651852  0.487731  0.308704  1
  O  O24  1  0.846918  0.836820  0.537408  1
  O  O25  1  0.163180  0.153082  0.462592  1
  O  O26  1  0.467711  0.532289  0.000000  1
