# generated using pymatgen
data_Y2SiP4O15
_symmetry_space_group_name_H-M   'P 1'
_cell_length_a   5.59328700
_cell_length_b   7.08857100
_cell_length_c   16.56410000
_cell_angle_alpha   90.00000000
_cell_angle_beta   90.00000000
_cell_angle_gamma   90.00000000
_symmetry_Int_Tables_number   1
_chemical_formula_structural   Y2SiP4O15
_chemical_formula_sum   'Y4 Si2 P8 O30'
_cell_volume   656.74026159
_cell_formula_units_Z   2
loop_
 _symmetry_equiv_pos_site_id
 _symmetry_equiv_pos_as_xyz
  1  'x, y, z'
loop_
 _atom_site_type_symbol
 _atom_site_label
 _atom_site_symmetry_multiplicity
 _atom_site_fract_x
 _atom_site_fract_y
 _atom_site_fract_z
 _atom_site_occupancy
  Y  Y0  1  0.864766  0.406040  0.782369  1
  Y  Y1  1  0.864766  0.593960  0.217631  1
  Y  Y2  1  0.135234  0.093960  0.282369  1
  Y  Y3  1  0.135234  0.906040  0.717631  1
  Si  Si4  1  0.458816  0.500000  0.500000  1
  Si  Si5  1  0.541184  0.000000  0.000000  1
  P  P6  1  0.692462  0.910852  0.830677  1
  P  P7  1  0.692462  0.089148  0.169323  1
  P  P8  1  0.307538  0.589148  0.330677  1
  P  P9  1  0.307538  0.410852  0.669323  1
  P  P10  1  0.642639  0.137214  0.425780  1
  P  P11  1  0.642639  0.862786  0.574220  1
  P  P12  1  0.357361  0.362786  0.925780  1
  P  P13  1  0.357361  0.637214  0.074220  1
  O  O14  1  0.642765  0.336917  0.468803  1
  O  O15  1  0.642765  0.663083  0.531197  1
  O  O16  1  0.357235  0.163083  0.968803  1
  O  O17  1  0.357235  0.836917  0.031197  1
  O  O18  1  0.716542  0.073635  0.072643  1
  O  O19  1  0.716542  0.926365  0.927357  1
  O  O20  1  0.283458  0.426365  0.572643  1
  O  O21  1  0.283458  0.573635  0.427357  1
  O  O22  1  0.835257  0.076886  0.793513  1
  O  O23  1  0.835257  0.923114  0.206487  1
  O  O24  1  0.164743  0.423114  0.293513  1
  O  O25  1  0.164743  0.576886  0.706487  1
  O  O26  1  0.427563  0.909812  0.811154  1
  O  O27  1  0.427563  0.090188  0.188846  1
  O  O28  1  0.572437  0.590188  0.311154  1
  O  O29  1  0.572437  0.409812  0.688846  1
  O  O30  1  0.834116  0.735439  0.803165  1
  O  O31  1  0.834116  0.264561  0.196835  1
  O  O32  1  0.165884  0.764561  0.303165  1
  O  O33  1  0.165884  0.235439  0.696835  1
  O  O34  1  0.425056  0.114467  0.373950  1
  O  O35  1  0.425056  0.885533  0.626050  1
  O  O36  1  0.574944  0.385533  0.873950  1
  O  O37  1  0.574944  0.614467  0.126050  1
  O  O38  1  0.881355  0.107755  0.386900  1
  O  O39  1  0.881355  0.892245  0.613100  1
  O  O40  1  0.118645  0.392245  0.886900  1
  O  O41  1  0.118645  0.607755  0.113100  1
  O  O42  1  0.610488  0.000000  0.500000  1
  O  O43  1  0.389512  0.500000  0.000000  1
