# generated using pymatgen
data_K3W2N5
_symmetry_space_group_name_H-M   'P 1'
_cell_length_a   10.38646607
_cell_length_b   10.38646607
_cell_length_c   10.38646607
_cell_angle_alpha   102.23332499
_cell_angle_beta   102.23332499
_cell_angle_gamma   125.18465788
_symmetry_Int_Tables_number   1
_chemical_formula_structural   K3W2N5
_chemical_formula_sum   'K12 W8 N20'
_cell_volume   812.97469415
_cell_formula_units_Z   4
loop_
 _symmetry_equiv_pos_site_id
 _symmetry_equiv_pos_as_xyz
  1  'x, y, z'
loop_
 _atom_site_type_symbol
 _atom_site_label
 _atom_site_symmetry_multiplicity
 _atom_site_fract_x
 _atom_site_fract_y
 _atom_site_fract_z
 _atom_site_occupancy
  K  K0  1  0.866898  0.548783  0.878834  1
  K  K1  1  0.669949  0.988064  0.121166  1
  K  K2  1  0.798783  0.419949  0.181885  1
  K  K3  1  0.238064  0.616898  0.818115  1
  K  K4  1  0.519016  0.714416  0.354796  1
  K  K5  1  0.359620  0.164220  0.645204  1
  K  K6  1  0.964416  0.109620  0.695400  1
  K  K7  1  0.414220  0.269016  0.304600  1
  K  K8  1  0.948837  0.948837  0.000000  1
  K  K9  1  0.198837  0.698837  0.500000  1
  K  K10  1  0.744148  0.244148  0.500000  1
  K  K11  1  0.494148  0.494148  0.000000  1
  W  W12  1  0.628119  0.055397  0.795442  1
  W  W13  1  0.259955  0.832677  0.204558  1
  W  W14  1  0.305397  0.009955  0.927278  1
  W  W15  1  0.082677  0.378119  0.072722  1
  W  W16  1  0.927340  0.744839  0.628164  1
  W  W17  1  0.116674  0.299176  0.371836  1
  W  W18  1  0.994839  0.866674  0.317498  1
  W  W19  1  0.549176  0.677340  0.682502  1
  N  N20  1  0.646132  0.199631  0.719556  1
  N  N21  1  0.480075  0.926577  0.280444  1
  N  N22  1  0.449631  0.230075  0.053499  1
  N  N23  1  0.176577  0.396132  0.946501  1
  N  N24  1  0.851970  0.709556  0.134670  1
  N  N25  1  0.574885  0.717300  0.865330  1
  N  N26  1  0.959556  0.324885  0.357586  1
  N  N27  1  0.967300  0.601970  0.642414  1
  N  N28  1  0.839171  0.183500  0.963974  1
  N  N29  1  0.219526  0.875197  0.036026  1
  N  N30  1  0.433500  0.969526  0.844329  1
  N  N31  1  0.125197  0.589171  0.155671  1
  N  N32  1  0.917634  0.762440  0.446280  1
  N  N33  1  0.316160  0.471354  0.553720  1
  N  N34  1  0.012440  0.066160  0.344806  1
  N  N35  1  0.721354  0.667634  0.655194  1
  N  N36  1  0.119784  0.972768  0.781562  1
  N  N37  1  0.191206  0.338222  0.218438  1
  N  N38  1  0.222768  0.941206  0.352984  1
  N  N39  1  0.588222  0.869784  0.647016  1
