# generated using pymatgen
data_SiC
_symmetry_space_group_name_H-M   'P 1'
_cell_length_a   12.78008947
_cell_length_b   12.78008947
_cell_length_c   12.78008945
_cell_angle_alpha   13.90859424
_cell_angle_beta   13.90859424
_cell_angle_gamma   13.90859094
_symmetry_Int_Tables_number   1
_chemical_formula_structural   SiC
_chemical_formula_sum   'Si5 C5'
_cell_volume   104.96228182
_cell_formula_units_Z   5
loop_
 _symmetry_equiv_pos_site_id
 _symmetry_equiv_pos_as_xyz
  1  'x, y, z'
loop_
 _atom_site_type_symbol
 _atom_site_label
 _atom_site_symmetry_multiplicity
 _atom_site_fract_x
 _atom_site_fract_y
 _atom_site_fract_z
 _atom_site_occupancy
  Si  Si0  1  0.916658  0.916658  0.916658  1
  Si  Si1  1  0.650009  0.650009  0.650009  1
  Si  Si2  1  0.450045  0.450045  0.450045  1
  Si  Si3  1  0.183405  0.183405  0.183405  1
  Si  Si4  1  0.050042  0.050042  0.050042  1
  C  C5  1  0.866645  0.866645  0.866645  1
  C  C6  1  0.599852  0.599852  0.599852  1
  C  C7  1  0.399896  0.399896  0.399896  1
  C  C8  1  0.133401  0.133401  0.133401  1
  C  C9  1  0.000048  0.000048  0.000048  1
