# generated using pymatgen
data_Ba3V2S4O3
_symmetry_space_group_name_H-M   'P 1'
_cell_length_a   6.07151694
_cell_length_b   10.33111552
_cell_length_c   10.30433217
_cell_angle_alpha   59.92823092
_cell_angle_beta   89.97596320
_cell_angle_gamma   89.76263431
_symmetry_Int_Tables_number   1
_chemical_formula_structural   Ba3V2S4O3
_chemical_formula_sum   'Ba6 V4 S8 O6'
_cell_volume   559.33997077
_cell_formula_units_Z   2
loop_
 _symmetry_equiv_pos_site_id
 _symmetry_equiv_pos_as_xyz
  1  'x, y, z'
loop_
 _atom_site_type_symbol
 _atom_site_label
 _atom_site_symmetry_multiplicity
 _atom_site_fract_x
 _atom_site_fract_y
 _atom_site_fract_z
 _atom_site_occupancy
  Ba  Ba0  1  0.171243  0.931689  0.690710  1
  Ba  Ba1  1  0.671547  0.309199  0.622895  1
  Ba  Ba2  1  0.671123  0.621973  0.068222  1
  Ba  Ba3  1  0.171679  0.377632  0.931889  1
  Ba  Ba4  1  0.171692  0.691115  0.377095  1
  Ba  Ba5  1  0.671203  0.068551  0.309155  1
  V  V6  1  0.807606  0.666607  0.666697  1
  V  V7  1  0.439594  0.000329  0.999867  1
  V  V8  1  0.307583  0.333494  0.333252  1
  V  V9  1  0.939747  0.999850  0.999965  1
  S  S10  1  0.940371  0.333189  0.333399  1
  S  S11  1  0.440390  0.666808  0.666644  1
  S  S12  1  0.188772  0.788927  0.036077  1
  S  S13  1  0.688443  0.963866  0.825720  1
  S  S14  1  0.691655  0.211082  0.963839  1
  S  S15  1  0.191600  0.036045  0.174459  1
  S  S16  1  0.193228  0.173943  0.790134  1
  S  S17  1  0.686527  0.826150  0.209746  1
  O  O18  1  0.408138  0.376032  0.159195  1
  O  O19  1  0.907839  0.840276  0.535114  1
  O  O20  1  0.908530  0.535312  0.624303  1
  O  O21  1  0.407745  0.464382  0.375968  1
  O  O22  1  0.408293  0.159500  0.464831  1
  O  O23  1  0.908072  0.624048  0.840823  1
