# generated using pymatgen
data_Ca2CoSi2O7
_symmetry_space_group_name_H-M   'P 1'
_cell_length_a   7.90945800
_cell_length_b   7.90945800
_cell_length_c   10.12681000
_cell_angle_alpha   90.00000000
_cell_angle_beta   90.00000000
_cell_angle_gamma   90.00000000
_symmetry_Int_Tables_number   1
_chemical_formula_structural   Ca2CoSi2O7
_chemical_formula_sum   'Ca8 Co4 Si8 O28'
_cell_volume   633.52843201
_cell_formula_units_Z   4
loop_
 _symmetry_equiv_pos_site_id
 _symmetry_equiv_pos_as_xyz
  1  'x, y, z'
loop_
 _atom_site_type_symbol
 _atom_site_label
 _atom_site_symmetry_multiplicity
 _atom_site_fract_x
 _atom_site_fract_y
 _atom_site_fract_z
 _atom_site_occupancy
  Ca  Ca0  1  0.170077  0.670078  0.249711  1
  Ca  Ca1  1  0.170077  0.670078  0.749711  1
  Ca  Ca2  1  0.829922  0.329922  0.249711  1
  Ca  Ca3  1  0.829922  0.329922  0.749711  1
  Ca  Ca4  1  0.670078  0.829922  0.250289  1
  Ca  Ca5  1  0.670078  0.829922  0.750289  1
  Ca  Ca6  1  0.329922  0.170077  0.250289  1
  Ca  Ca7  1  0.329922  0.170077  0.750289  1
  Co  Co8  1  0.500000  0.500000  0.500000  1
  Co  Co9  1  0.000000  0.000000  0.000000  1
  Co  Co10  1  0.500000  0.500000  0.000000  1
  Co  Co11  1  0.000000  0.000000  0.500000  1
  Si  Si12  1  0.859140  0.640860  0.466083  1
  Si  Si13  1  0.859140  0.640860  0.966083  1
  Si  Si14  1  0.640860  0.140859  0.033917  1
  Si  Si15  1  0.640860  0.140859  0.533917  1
  Si  Si16  1  0.359140  0.859140  0.033917  1
  Si  Si17  1  0.359140  0.859140  0.533917  1
  Si  Si18  1  0.140859  0.359140  0.466083  1
  Si  Si19  1  0.140859  0.359140  0.966083  1
  O  O20  1  0.500000  0.000000  0.091991  1
  O  O21  1  0.500000  0.000000  0.591991  1
  O  O22  1  0.000000  0.500000  0.408009  1
  O  O23  1  0.000000  0.500000  0.908009  1
  O  O24  1  0.856913  0.643088  0.125379  1
  O  O25  1  0.856913  0.643088  0.625379  1
  O  O26  1  0.643088  0.143088  0.374621  1
  O  O27  1  0.643088  0.143088  0.874622  1
  O  O28  1  0.356912  0.856913  0.374621  1
  O  O29  1  0.356912  0.856913  0.874622  1
  O  O30  1  0.143088  0.356912  0.125379  1
  O  O31  1  0.143088  0.356912  0.625379  1
  O  O32  1  0.685955  0.582268  0.388744  1
  O  O33  1  0.685955  0.582268  0.888744  1
  O  O34  1  0.314046  0.417732  0.388744  1
  O  O35  1  0.314046  0.417732  0.888744  1
  O  O36  1  0.417732  0.685955  0.111255  1
  O  O37  1  0.417732  0.685955  0.611255  1
  O  O38  1  0.582268  0.314046  0.111255  1
  O  O39  1  0.582268  0.314046  0.611255  1
  O  O40  1  0.917731  0.814045  0.388744  1
  O  O41  1  0.917731  0.814045  0.888744  1
  O  O42  1  0.814045  0.082269  0.111255  1
  O  O43  1  0.814045  0.082269  0.611255  1
  O  O44  1  0.185954  0.917731  0.111255  1
  O  O45  1  0.185954  0.917731  0.611255  1
  O  O46  1  0.082269  0.185954  0.388744  1
  O  O47  1  0.082269  0.185954  0.888744  1
