# generated using pymatgen
data_CoO
_symmetry_space_group_name_H-M   'P 1'
_cell_length_a   3.26946857
_cell_length_b   5.28898000
_cell_length_c   5.64627151
_cell_angle_alpha   90.00064051
_cell_angle_beta   90.00000310
_cell_angle_gamma   90.00002284
_symmetry_Int_Tables_number   1
_chemical_formula_structural   CoO
_chemical_formula_sum   'Co4 O4'
_cell_volume   97.63619570
_cell_formula_units_Z   4
loop_
 _symmetry_equiv_pos_site_id
 _symmetry_equiv_pos_as_xyz
  1  'x, y, z'
loop_
 _atom_site_type_symbol
 _atom_site_label
 _atom_site_symmetry_multiplicity
 _atom_site_fract_x
 _atom_site_fract_y
 _atom_site_fract_z
 _atom_site_occupancy
  Co  Co0  1  0.000000  0.998454  0.666239  1
  Co  Co1  1  0.999999  0.498454  0.333766  1
  Co  Co2  1  0.500002  0.998514  0.166308  1
  Co  Co3  1  0.500000  0.498517  0.833694  1
  O  O4  1  0.499998  0.376587  0.166081  1
  O  O5  1  0.999998  0.376445  0.666062  1
  O  O6  1  0.000005  0.876449  0.333943  1
  O  O7  1  0.500000  0.876580  0.833907  1
