# generated using pymatgen
data_Ga2Se3
_symmetry_space_group_name_H-M   'P 1'
_cell_length_a   6.89657812
_cell_length_b   6.89657812
_cell_length_c   6.76989570
_cell_angle_alpha   80.95245770
_cell_angle_beta   80.95245770
_cell_angle_gamma   120.81403879
_symmetry_Int_Tables_number   1
_chemical_formula_structural   Ga2Se3
_chemical_formula_sum   'Ga4 Se6'
_cell_volume   262.14518741
_cell_formula_units_Z   2
loop_
 _symmetry_equiv_pos_site_id
 _symmetry_equiv_pos_as_xyz
  1  'x, y, z'
loop_
 _atom_site_type_symbol
 _atom_site_label
 _atom_site_symmetry_multiplicity
 _atom_site_fract_x
 _atom_site_fract_y
 _atom_site_fract_z
 _atom_site_occupancy
  Ga  Ga0  1  0.782978  0.280726  0.494858  1
  Ga  Ga1  1  0.280726  0.782978  0.994858  1
  Ga  Ga2  1  0.413829  0.583943  0.499011  1
  Ga  Ga3  1  0.583943  0.413829  0.999011  1
  Se  Se4  1  0.584435  0.740379  0.113381  1
  Se  Se5  1  0.740379  0.584435  0.613381  1
  Se  Se6  1  0.046898  0.218671  0.637637  1
  Se  Se7  1  0.218671  0.046898  0.137637  1
  Se  Se8  1  0.387043  0.901497  0.607514  1
  Se  Se9  1  0.901497  0.387043  0.107514  1
