# generated using pymatgen
data_KTb(PO3)4
_symmetry_space_group_name_H-M   'P 1'
_cell_length_a   8.45038900
_cell_length_b   7.35640300
_cell_length_c   7.97634631
_cell_angle_alpha   88.49533940
_cell_angle_beta   90.00000000
_cell_angle_gamma   90.00000000
_symmetry_Int_Tables_number   1
_chemical_formula_structural   KTb(PO3)4
_chemical_formula_sum   'K2 Tb2 P8 O24'
_cell_volume   495.67434534
_cell_formula_units_Z   2
loop_
 _symmetry_equiv_pos_site_id
 _symmetry_equiv_pos_as_xyz
  1  'x, y, z'
loop_
 _atom_site_type_symbol
 _atom_site_label
 _atom_site_symmetry_multiplicity
 _atom_site_fract_x
 _atom_site_fract_y
 _atom_site_fract_z
 _atom_site_occupancy
  K  K0  1  0.938317  0.732776  0.716762  1
  K  K1  1  0.438317  0.267224  0.283238  1
  Tb  Tb2  1  0.250319  0.761849  0.242067  1
  Tb  Tb3  1  0.750319  0.238151  0.757933  1
  P  P4  1  0.902056  0.004843  0.381687  1
  P  P5  1  0.402056  0.995157  0.618313  1
  P  P6  1  0.998749  0.386621  0.397397  1
  P  P7  1  0.498749  0.613379  0.602603  1
  P  P8  1  0.876126  0.566066  0.092133  1
  P  P9  1  0.376126  0.433934  0.907867  1
  P  P10  1  0.668939  0.902290  0.099158  1
  P  P11  1  0.168939  0.097710  0.900842  1
  O  O12  1  0.939293  0.391725  0.574045  1
  O  O13  1  0.439293  0.608275  0.425955  1
  O  O14  1  0.700061  0.980533  0.926465  1
  O  O15  1  0.200061  0.019467  0.073535  1
  O  O16  1  0.152943  0.476025  0.353171  1
  O  O17  1  0.652943  0.523975  0.646829  1
  O  O18  1  0.860834  0.464780  0.273703  1
  O  O19  1  0.360834  0.535220  0.726297  1
  O  O20  1  0.011614  0.179113  0.339022  1
  O  O21  1  0.511614  0.820887  0.660978  1
  O  O22  1  0.806222  0.035089  0.537176  1
  O  O23  1  0.306222  0.964911  0.462824  1
  O  O24  1  0.005992  0.090883  0.828162  1
  O  O25  1  0.505993  0.909117  0.171838  1
  O  O26  1  0.221298  0.307769  0.892605  1
  O  O27  1  0.721298  0.692231  0.107395  1
  O  O28  1  0.288226  0.990200  0.779142  1
  O  O29  1  0.788226  0.009800  0.220858  1
  O  O30  1  0.506563  0.160244  0.617134  1
  O  O31  1  0.006563  0.839756  0.382866  1
  O  O32  1  0.522778  0.320944  0.928103  1
  O  O33  1  0.022778  0.679056  0.071897  1
  O  O34  1  0.346270  0.568107  0.042931  1
  O  O35  1  0.846270  0.431893  0.957069  1
