# generated using pymatgen
data_BaTeW2O9
_symmetry_space_group_name_H-M   'P 1'
_cell_length_a   7.60675300
_cell_length_b   5.61084500
_cell_length_c   9.06798879
_cell_angle_alpha   89.97608461
_cell_angle_beta   90.00000000
_cell_angle_gamma   90.00000000
_symmetry_Int_Tables_number   1
_chemical_formula_structural   BaTeW2O9
_chemical_formula_sum   'Ba2 Te2 W4 O18'
_cell_volume   387.02455738
_cell_formula_units_Z   2
loop_
 _symmetry_equiv_pos_site_id
 _symmetry_equiv_pos_as_xyz
  1  'x, y, z'
loop_
 _atom_site_type_symbol
 _atom_site_label
 _atom_site_symmetry_multiplicity
 _atom_site_fract_x
 _atom_site_fract_y
 _atom_site_fract_z
 _atom_site_occupancy
  Ba  Ba0  1  0.107995  0.758222  0.439652  1
  Ba  Ba1  1  0.607995  0.241778  0.560348  1
  Te  Te2  1  0.362877  0.628403  0.899642  1
  Te  Te3  1  0.862877  0.371597  0.100358  1
  W  W4  1  0.802283  0.759057  0.823614  1
  W  W5  1  0.118892  0.219075  0.745140  1
  W  W6  1  0.302283  0.240943  0.176386  1
  W  W7  1  0.618892  0.780925  0.254860  1
  O  O8  1  0.329047  0.292667  0.371151  1
  O  O9  1  0.829047  0.707333  0.628849  1
  O  O10  1  0.150007  0.997735  0.171473  1
  O  O11  1  0.650007  0.002265  0.828527  1
  O  O12  1  0.084130  0.471476  0.178531  1
  O  O13  1  0.584130  0.528524  0.821469  1
  O  O14  1  0.475825  0.775387  0.412080  1
  O  O15  1  0.975825  0.224613  0.587920  1
  O  O16  1  0.941363  0.440992  0.877762  1
  O  O17  1  0.441363  0.559008  0.122238  1
  O  O18  1  0.008470  0.955385  0.856697  1
  O  O19  1  0.508470  0.044615  0.143303  1
  O  O20  1  0.290479  0.028456  0.674509  1
  O  O21  1  0.790479  0.971544  0.325491  1
  O  O22  1  0.778318  0.696734  0.055845  1
  O  O23  1  0.278318  0.303266  0.944155  1
  O  O24  1  0.241673  0.518680  0.705160  1
  O  O25  1  0.741673  0.481320  0.294840  1
