# generated using pymatgen
data_Na3VS3O
_symmetry_space_group_name_H-M   'P 1'
_cell_length_a   7.74594436
_cell_length_b   7.74594436
_cell_length_c   5.97305200
_cell_angle_alpha   90.00000000
_cell_angle_beta   90.00000000
_cell_angle_gamma   101.86778518
_symmetry_Int_Tables_number   1
_chemical_formula_structural   Na3VS3O
_chemical_formula_sum   'Na6 V2 S6 O2'
_cell_volume   350.72057550
_cell_formula_units_Z   2
loop_
 _symmetry_equiv_pos_site_id
 _symmetry_equiv_pos_as_xyz
  1  'x, y, z'
loop_
 _atom_site_type_symbol
 _atom_site_label
 _atom_site_symmetry_multiplicity
 _atom_site_fract_x
 _atom_site_fract_y
 _atom_site_fract_z
 _atom_site_occupancy
  Na  Na0  1  0.881100  0.118900  0.463106  1
  Na  Na1  1  0.825982  0.585910  0.483093  1
  Na  Na2  1  0.414090  0.174018  0.483093  1
  Na  Na3  1  0.585910  0.825982  0.983093  1
  Na  Na4  1  0.118900  0.881100  0.963106  1
  Na  Na5  1  0.174018  0.414090  0.983093  1
  V  V6  1  0.296271  0.703729  0.385053  1
  V  V7  1  0.703729  0.296271  0.885053  1
  S  S8  1  0.564865  0.812527  0.500149  1
  S  S9  1  0.881231  0.118769  0.982894  1
  S  S10  1  0.187473  0.435135  0.500149  1
  S  S11  1  0.812527  0.564865  0.000149  1
  S  S12  1  0.435135  0.187473  0.000149  1
  S  S13  1  0.118769  0.881231  0.482894  1
  O  O14  1  0.698984  0.301016  0.601023  1
  O  O15  1  0.301016  0.698984  0.101023  1
