# generated using pymatgen
data_Na3Mo2N5
_symmetry_space_group_name_H-M   'P 1'
_cell_length_a   9.62472447
_cell_length_b   9.62472447
_cell_length_c   9.62472447
_cell_angle_alpha   101.78707972
_cell_angle_beta   101.78707972
_cell_angle_gamma   126.25992811
_symmetry_Int_Tables_number   1
_chemical_formula_structural   Na3Mo2N5
_chemical_formula_sum   'Na12 Mo8 N20'
_cell_volume   641.30656536
_cell_formula_units_Z   4
loop_
 _symmetry_equiv_pos_site_id
 _symmetry_equiv_pos_as_xyz
  1  'x, y, z'
loop_
 _atom_site_type_symbol
 _atom_site_label
 _atom_site_symmetry_multiplicity
 _atom_site_fract_x
 _atom_site_fract_y
 _atom_site_fract_z
 _atom_site_occupancy
  Na  Na0  1  0.499681  0.619148  0.666774  1
  Na  Na1  1  0.952374  0.832906  0.333226  1
  Na  Na2  1  0.869148  0.702374  0.619467  1
  Na  Na3  1  0.082906  0.249681  0.380533  1
  Na  Na4  1  0.283798  0.913978  0.225254  1
  Na  Na5  1  0.688724  0.058543  0.774746  1
  Na  Na6  1  0.163978  0.438724  0.130181  1
  Na  Na7  1  0.308543  0.033798  0.869819  1
  Na  Na8  1  0.562267  0.562267  0.000000  1
  Na  Na9  1  0.812267  0.312267  0.500000  1
  Na  Na10  1  0.225583  0.725583  0.500000  1
  Na  Na11  1  0.975583  0.975583  0.000000  1
  Mo  Mo12  1  0.638309  0.861133  0.399924  1
  Mo  Mo13  1  0.461209  0.238385  0.600076  1
  Mo  Mo14  1  0.111133  0.211209  0.722824  1
  Mo  Mo15  1  0.488385  0.388309  0.277176  1
  Mo  Mo16  1  0.232136  0.614867  0.813414  1
  Mo  Mo17  1  0.801453  0.418721  0.186586  1
  Mo  Mo18  1  0.864867  0.551453  0.882731  1
  Mo  Mo19  1  0.668721  0.982136  0.117269  1
  N  N20  1  0.514247  0.806583  0.518499  1
  N  N21  1  0.288084  0.995748  0.481501  1
  N  N22  1  0.056583  0.038084  0.792336  1
  N  N23  1  0.245748  0.264247  0.207664  1
  N  N24  1  0.756811  0.643355  0.839435  1
  N  N25  1  0.803920  0.917376  0.160565  1
  N  N26  1  0.893355  0.553920  0.386544  1
  N  N27  1  0.167376  0.506811  0.613456  1
  N  N28  1  0.610227  0.644410  0.310996  1
  N  N29  1  0.333413  0.299231  0.689004  1
  N  N30  1  0.894410  0.083413  0.534182  1
  N  N31  1  0.549231  0.360227  0.465818  1
  N  N32  1  0.083341  0.685637  0.835020  1
  N  N33  1  0.850617  0.248321  0.164980  1
  N  N34  1  0.935637  0.600617  0.102296  1
  N  N35  1  0.498321  0.833341  0.897704  1
  N  N36  1  0.178909  0.426423  0.888736  1
  N  N37  1  0.537687  0.290174  0.111264  1
  N  N38  1  0.676423  0.287687  0.747514  1
  N  N39  1  0.540174  0.928909  0.252486  1
