# generated using pymatgen
data_K3MnO4
_symmetry_space_group_name_H-M   'P 1'
_cell_length_a   6.58870793
_cell_length_b   11.00535773
_cell_length_c   9.68359078
_cell_angle_alpha   67.99197568
_cell_angle_beta   90.00000216
_cell_angle_gamma   107.41802212
_symmetry_Int_Tables_number   1
_chemical_formula_structural   K3MnO4
_chemical_formula_sum   'K12 Mn4 O16'
_cell_volume   616.13669967
_cell_formula_units_Z   4
loop_
 _symmetry_equiv_pos_site_id
 _symmetry_equiv_pos_as_xyz
  1  'x, y, z'
loop_
 _atom_site_type_symbol
 _atom_site_label
 _atom_site_symmetry_multiplicity
 _atom_site_fract_x
 _atom_site_fract_y
 _atom_site_fract_z
 _atom_site_occupancy
  K  K0  1  0.875000  0.750000  0.375000  1
  K  K1  1  0.375000  0.750000  0.875000  1
  K  K2  1  0.625000  0.250000  0.125000  1
  K  K3  1  0.125000  0.250000  0.625000  1
  K  K4  1  0.687500  0.375000  0.437500  1
  K  K5  1  0.187500  0.375000  0.937500  1
  K  K6  1  0.437500  0.875000  0.187500  1
  K  K7  1  0.937500  0.875000  0.687500  1
  K  K8  1  0.312500  0.625000  0.562500  1
  K  K9  1  0.812500  0.625000  0.062500  1
  K  K10  1  0.062500  0.125000  0.312500  1
  K  K11  1  0.562500  0.125000  0.812500  1
  Mn  Mn12  1  0.250000  0.500000  0.250000  1
  Mn  Mn13  1  0.500000  0.000000  0.500000  1
  Mn  Mn14  1  0.750000  0.500000  0.750000  1
  Mn  Mn15  1  0.000000  0.000000  0.000000  1
  O  O16  1  0.171129  0.645797  0.183074  1
  O  O17  1  0.671129  0.645797  0.683074  1
  O  O18  1  0.921129  0.145797  0.933074  1
  O  O19  1  0.421129  0.145797  0.433074  1
  O  O20  1  0.275332  0.854203  0.566926  1
  O  O21  1  0.775332  0.854203  0.066926  1
  O  O22  1  0.025332  0.354203  0.316926  1
  O  O23  1  0.525332  0.354203  0.816926  1
  O  O24  1  0.654756  0.005972  0.642811  1
  O  O25  1  0.154756  0.005972  0.142811  1
  O  O26  1  0.404756  0.505972  0.392811  1
  O  O27  1  0.904756  0.505972  0.892811  1
  O  O28  1  0.898783  0.494028  0.607189  1
  O  O29  1  0.398783  0.494028  0.107189  1
  O  O30  1  0.648783  0.994028  0.357189  1
  O  O31  1  0.148783  0.994028  0.857189  1
