# generated using pymatgen
data_Cs2LiMnO4
_symmetry_space_group_name_H-M   'P 1'
_cell_length_a   6.08039000
_cell_length_b   12.39209800
_cell_length_c   8.31034300
_cell_angle_alpha   90.00000000
_cell_angle_beta   90.00000000
_cell_angle_gamma   90.00000000
_symmetry_Int_Tables_number   1
_chemical_formula_structural   Cs2LiMnO4
_chemical_formula_sum   'Cs8 Li4 Mn4 O16'
_cell_volume   626.17427922
_cell_formula_units_Z   4
loop_
 _symmetry_equiv_pos_site_id
 _symmetry_equiv_pos_as_xyz
  1  'x, y, z'
loop_
 _atom_site_type_symbol
 _atom_site_label
 _atom_site_symmetry_multiplicity
 _atom_site_fract_x
 _atom_site_fract_y
 _atom_site_fract_z
 _atom_site_occupancy
  Cs  Cs0  1  0.500000  0.106472  0.545098  1
  Cs  Cs1  1  0.000000  0.606472  0.545098  1
  Cs  Cs2  1  0.000000  0.393528  0.045098  1
  Cs  Cs3  1  0.500000  0.893528  0.045098  1
  Cs  Cs4  1  0.500000  0.426409  0.410632  1
  Cs  Cs5  1  0.000000  0.926409  0.410632  1
  Cs  Cs6  1  0.000000  0.073591  0.910632  1
  Cs  Cs7  1  0.500000  0.573591  0.910632  1
  Li  Li8  1  0.500000  0.292093  0.826966  1
  Li  Li9  1  0.000000  0.792093  0.826966  1
  Li  Li10  1  0.000000  0.207907  0.326966  1
  Li  Li11  1  0.500000  0.707907  0.326966  1
  Mn  Mn12  1  0.500000  0.801437  0.607858  1
  Mn  Mn13  1  0.000000  0.698563  0.107858  1
  Mn  Mn14  1  0.000000  0.301437  0.607858  1
  Mn  Mn15  1  0.500000  0.198563  0.107858  1
  O  O16  1  0.500000  0.139410  0.919121  1
  O  O17  1  0.000000  0.639410  0.919121  1
  O  O18  1  0.000000  0.360590  0.419121  1
  O  O19  1  0.500000  0.860590  0.419121  1
  O  O20  1  0.000000  0.164778  0.560983  1
  O  O21  1  0.500000  0.664778  0.560983  1
  O  O22  1  0.500000  0.335222  0.060983  1
  O  O23  1  0.000000  0.835222  0.060983  1
  O  O24  1  0.265896  0.163508  0.210721  1
  O  O25  1  0.765896  0.663508  0.210721  1
  O  O26  1  0.234104  0.336492  0.710721  1
  O  O27  1  0.734104  0.836492  0.710721  1
  O  O28  1  0.734104  0.163508  0.210721  1
  O  O29  1  0.234104  0.663508  0.210721  1
  O  O30  1  0.765896  0.336492  0.710721  1
  O  O31  1  0.265896  0.836492  0.710721  1
