# generated using pymatgen
data_Na2CoP2O7
_symmetry_space_group_name_H-M   'P 1'
_cell_length_a   7.87097400
_cell_length_b   7.87096700
_cell_length_c   10.29698600
_cell_angle_alpha   89.99998716
_cell_angle_beta   90.00004410
_cell_angle_gamma   90.00000000
_symmetry_Int_Tables_number   1
_chemical_formula_structural   Na2CoP2O7
_chemical_formula_sum   'Na8 Co4 P8 O28'
_cell_volume   637.92069524
_cell_formula_units_Z   4
loop_
 _symmetry_equiv_pos_site_id
 _symmetry_equiv_pos_as_xyz
  1  'x, y, z'
loop_
 _atom_site_type_symbol
 _atom_site_label
 _atom_site_symmetry_multiplicity
 _atom_site_fract_x
 _atom_site_fract_y
 _atom_site_fract_z
 _atom_site_occupancy
  Na  Na0  1  0.832877  0.332877  0.245320  1
  Na  Na1  1  0.832877  0.332877  0.745321  1
  Na  Na2  1  0.667123  0.832877  0.254679  1
  Na  Na3  1  0.667123  0.832877  0.754680  1
  Na  Na4  1  0.167123  0.667123  0.245320  1
  Na  Na5  1  0.167123  0.667123  0.745321  1
  Na  Na6  1  0.332877  0.167123  0.254679  1
  Na  Na7  1  0.332877  0.167123  0.754680  1
  Co  Co8  1  0.499999  0.499998  0.499999  1
  Co  Co9  1  0.999999  0.000000  0.000000  1
  Co  Co10  1  0.500000  0.500000  0.000000  1
  Co  Co11  1  0.000001  0.000000  0.500000  1
  P  P12  1  0.638470  0.138471  0.035831  1
  P  P13  1  0.638472  0.138470  0.535831  1
  P  P14  1  0.861529  0.638472  0.464169  1
  P  P15  1  0.861529  0.638470  0.964169  1
  P  P16  1  0.361529  0.861529  0.035831  1
  P  P17  1  0.361529  0.861529  0.535831  1
  P  P18  1  0.138470  0.361529  0.464170  1
  P  P19  1  0.138471  0.361529  0.964169  1
  O  O20  1  0.000001  0.500000  0.408536  1
  O  O21  1  0.000000  0.500000  0.908535  1
  O  O22  1  0.500000  0.000000  0.091465  1
  O  O23  1  0.500000  0.000000  0.591464  1
  O  O24  1  0.639710  0.139710  0.389416  1
  O  O25  1  0.639710  0.139711  0.889415  1
  O  O26  1  0.860289  0.639710  0.110585  1
  O  O27  1  0.860290  0.639710  0.610584  1
  O  O28  1  0.360290  0.860290  0.389416  1
  O  O29  1  0.360291  0.860290  0.889415  1
  O  O30  1  0.139711  0.360290  0.110585  1
  O  O31  1  0.139710  0.360289  0.610583  1
  O  O32  1  0.304284  0.419929  0.396571  1
  O  O33  1  0.304285  0.419925  0.896569  1
  O  O34  1  0.195716  0.919929  0.103431  1
  O  O35  1  0.195715  0.919925  0.603429  1
  O  O36  1  0.695716  0.580072  0.396570  1
  O  O37  1  0.695715  0.580074  0.896569  1
  O  O38  1  0.804284  0.080072  0.103430  1
  O  O39  1  0.804285  0.080074  0.603430  1
  O  O40  1  0.580074  0.304285  0.103431  1
  O  O41  1  0.580072  0.304285  0.603429  1
  O  O42  1  0.919925  0.804285  0.396570  1
  O  O43  1  0.919929  0.804284  0.896569  1
  O  O44  1  0.419925  0.695715  0.103431  1
  O  O45  1  0.419929  0.695716  0.603431  1
  O  O46  1  0.080074  0.195715  0.396571  1
  O  O47  1  0.080072  0.195716  0.896569  1
