# generated using pymatgen
data_TlCo(CO)4
_symmetry_space_group_name_H-M   'P 1'
_cell_length_a   9.11919700
_cell_length_b   9.11919700
_cell_length_c   9.11919700
_cell_angle_alpha   90.00000000
_cell_angle_beta   90.00000000
_cell_angle_gamma   90.00000000
_symmetry_Int_Tables_number   1
_chemical_formula_structural   TlCo(CO)4
_chemical_formula_sum   'Tl4 Co4 C16 O16'
_cell_volume   758.35017851
_cell_formula_units_Z   4
loop_
 _symmetry_equiv_pos_site_id
 _symmetry_equiv_pos_as_xyz
  1  'x, y, z'
loop_
 _atom_site_type_symbol
 _atom_site_label
 _atom_site_symmetry_multiplicity
 _atom_site_fract_x
 _atom_site_fract_y
 _atom_site_fract_z
 _atom_site_occupancy
  Tl  Tl0  1  0.190077  0.309923  0.690077  1
  Tl  Tl1  1  0.309923  0.690077  0.190077  1
  Tl  Tl2  1  0.809923  0.809923  0.809923  1
  Tl  Tl3  1  0.690077  0.190077  0.309923  1
  Co  Co4  1  0.197892  0.697892  0.802108  1
  Co  Co5  1  0.802108  0.197892  0.697892  1
  Co  Co6  1  0.697892  0.802108  0.197892  1
  Co  Co7  1  0.302108  0.302108  0.302108  1
  C  C8  1  0.812751  0.384818  0.654204  1
  C  C9  1  0.413146  0.413146  0.413146  1
  C  C10  1  0.615182  0.154204  0.687249  1
  C  C11  1  0.845796  0.187249  0.884818  1
  C  C12  1  0.384818  0.654204  0.812751  1
  C  C13  1  0.586854  0.913146  0.086854  1
  C  C14  1  0.654204  0.812751  0.384818  1
  C  C15  1  0.312751  0.115182  0.345796  1
  C  C16  1  0.687249  0.615182  0.154204  1
  C  C17  1  0.884818  0.845796  0.187249  1
  C  C18  1  0.187249  0.884818  0.845796  1
  C  C19  1  0.115182  0.345796  0.312751  1
  C  C20  1  0.913146  0.086854  0.586854  1
  C  C21  1  0.154204  0.687249  0.615182  1
  C  C22  1  0.345796  0.312751  0.115182  1
  C  C23  1  0.086854  0.586854  0.913146  1
  O  O24  1  0.989049  0.368518  0.317858  1
  O  O25  1  0.010951  0.868518  0.182142  1
  O  O26  1  0.487456  0.487456  0.487456  1
  O  O27  1  0.182142  0.010951  0.868518  1
  O  O28  1  0.631482  0.817858  0.510951  1
  O  O29  1  0.682142  0.489049  0.131482  1
  O  O30  1  0.510951  0.631482  0.817858  1
  O  O31  1  0.987456  0.012544  0.512544  1
  O  O32  1  0.817858  0.510951  0.631482  1
  O  O33  1  0.012544  0.512544  0.987456  1
  O  O34  1  0.489049  0.131482  0.682142  1
  O  O35  1  0.317858  0.989049  0.368518  1
  O  O36  1  0.512544  0.987456  0.012544  1
  O  O37  1  0.868518  0.182142  0.010951  1
  O  O38  1  0.131482  0.682142  0.489049  1
  O  O39  1  0.368518  0.317858  0.989049  1
