# generated using pymatgen
data_YFe(WO4)2
_symmetry_space_group_name_H-M   'P 1'
_cell_length_a   5.96025805
_cell_length_b   6.01881773
_cell_length_c   9.80778487
_cell_angle_alpha   101.32490947
_cell_angle_beta   77.99021670
_cell_angle_gamma   109.17085912
_symmetry_Int_Tables_number   1
_chemical_formula_structural   YFe(WO4)2
_chemical_formula_sum   'Y2 Fe2 W4 O16'
_cell_volume   321.91869987
_cell_formula_units_Z   2
loop_
 _symmetry_equiv_pos_site_id
 _symmetry_equiv_pos_as_xyz
  1  'x, y, z'
loop_
 _atom_site_type_symbol
 _atom_site_label
 _atom_site_symmetry_multiplicity
 _atom_site_fract_x
 _atom_site_fract_y
 _atom_site_fract_z
 _atom_site_occupancy
  Y  Y0  1  0.361837  0.715340  0.739370  1
  Y  Y1  1  0.862088  0.715127  0.239651  1
  Fe  Fe2  1  0.139617  0.289683  0.984553  1
  Fe  Fe3  1  0.639230  0.287239  0.483871  1
  W  W4  1  0.733277  0.385682  0.855577  1
  W  W5  1  0.233374  0.385359  0.355481  1
  W  W6  1  0.999778  0.053910  0.612685  1
  W  W7  1  0.499484  0.052943  0.112343  1
  O  O8  1  0.481260  0.660821  0.353763  1
  O  O9  1  0.981066  0.661230  0.853748  1
  O  O10  1  0.443032  0.485130  0.867398  1
  O  O11  1  0.943421  0.484996  0.367422  1
  O  O12  1  0.477811  0.184605  0.312386  1
  O  O13  1  0.977812  0.185691  0.812633  1
  O  O14  1  0.488874  0.050638  0.912308  1
  O  O15  1  0.988712  0.050751  0.412433  1
  O  O16  1  0.745181  0.936915  0.111451  1
  O  O17  1  0.245902  0.937969  0.610996  1
  O  O18  1  0.243138  0.784046  0.127236  1
  O  O19  1  0.743290  0.785401  0.627860  1
  O  O20  1  0.232879  0.244722  0.153608  1
  O  O21  1  0.733126  0.246023  0.653651  1
  O  O22  1  0.748858  0.386199  0.069840  1
  O  O23  1  0.249044  0.386567  0.569834  1
