# generated using pymatgen
data_Ba2WO3F4
_symmetry_space_group_name_H-M   'P 1'
_cell_length_a   7.57595540
_cell_length_b   7.57595540
_cell_length_c   7.32050015
_cell_angle_alpha   62.86364665
_cell_angle_beta   62.86364665
_cell_angle_gamma   78.37096330
_symmetry_Int_Tables_number   1
_chemical_formula_structural   Ba2WO3F4
_chemical_formula_sum   'Ba4 W2 O6 F8'
_cell_volume   332.74118091
_cell_formula_units_Z   2
loop_
 _symmetry_equiv_pos_site_id
 _symmetry_equiv_pos_as_xyz
  1  'x, y, z'
loop_
 _atom_site_type_symbol
 _atom_site_label
 _atom_site_symmetry_multiplicity
 _atom_site_fract_x
 _atom_site_fract_y
 _atom_site_fract_z
 _atom_site_occupancy
  Ba  Ba0  1  0.739661  0.498932  0.554779  1
  Ba  Ba1  1  0.498932  0.739661  0.054779  1
  Ba  Ba2  1  0.154497  0.501285  0.890136  1
  Ba  Ba3  1  0.501285  0.154497  0.390136  1
  W  W4  1  0.028561  0.974311  0.007655  1
  W  W5  1  0.974311  0.028561  0.507655  1
  O  O6  1  0.084110  0.268969  0.375692  1
  O  O7  1  0.268969  0.084110  0.875692  1
  O  O8  1  0.924808  0.049815  0.261567  1
  O  O9  1  0.049815  0.924808  0.761567  1
  O  O10  1  0.719945  0.084214  0.661184  1
  O  O11  1  0.084214  0.719945  0.161184  1
  F  F12  1  0.900420  0.724661  0.653919  1
  F  F13  1  0.724661  0.900420  0.153919  1
  F  F14  1  0.478264  0.404592  0.001901  1
  F  F15  1  0.404592  0.478264  0.501901  1
  F  F16  1  0.918898  0.250932  0.858205  1
  F  F17  1  0.250932  0.918898  0.358205  1
  F  F18  1  0.476101  0.772225  0.673961  1
  F  F19  1  0.772225  0.476101  0.173961  1
