# generated using pymatgen
data_Te4Mo3WS4
_symmetry_space_group_name_H-M   'P 1'
_cell_length_a   3.36206328
_cell_length_b   3.36206328
_cell_length_c   38.30512500
_cell_angle_alpha   90.00000000
_cell_angle_beta   90.00000000
_cell_angle_gamma   119.99998580
_symmetry_Int_Tables_number   1
_chemical_formula_structural   Te4Mo3WS4
_chemical_formula_sum   'Te4 Mo3 W1 S4'
_cell_volume   374.97243592
_cell_formula_units_Z   1
loop_
 _symmetry_equiv_pos_site_id
 _symmetry_equiv_pos_as_xyz
  1  'x, y, z'
loop_
 _atom_site_type_symbol
 _atom_site_label
 _atom_site_symmetry_multiplicity
 _atom_site_fract_x
 _atom_site_fract_y
 _atom_site_fract_z
 _atom_site_occupancy
  Te  Te0  1  0.333333  0.666667  0.331156  1
  Te  Te1  1  0.333333  0.666667  0.707159  1
  Te  Te2  1  0.333333  0.666667  0.232435  1
  Te  Te3  1  0.333333  0.666667  0.607893  1
  Mo  Mo4  1  0.333333  0.666667  0.093922  1
  Mo  Mo5  1  0.333333  0.666667  0.469662  1
  Mo  Mo6  1  0.666667  0.333333  0.281790  1
  W  W7  1  0.666667  0.333333  0.657548  1
  S  S8  1  0.666667  0.333333  0.054398  1
  S  S9  1  0.666667  0.333333  0.430184  1
  S  S10  1  0.666667  0.333333  0.133457  1
  S  S11  1  0.666667  0.333333  0.509144  1
