# generated using pymatgen
data_Te4Mo3W(SeS)2
_symmetry_space_group_name_H-M   'P 1'
_cell_length_a   3.39981821
_cell_length_b   3.39981821
_cell_length_c   38.76360600
_cell_angle_alpha   90.00000000
_cell_angle_beta   90.00000000
_cell_angle_gamma   120.00000411
_symmetry_Int_Tables_number   1
_chemical_formula_structural   Te4Mo3W(SeS)2
_chemical_formula_sum   'Te4 Mo3 W1 Se2 S2'
_cell_volume   388.03077942
_cell_formula_units_Z   1
loop_
 _symmetry_equiv_pos_site_id
 _symmetry_equiv_pos_as_xyz
  1  'x, y, z'
loop_
 _atom_site_type_symbol
 _atom_site_label
 _atom_site_symmetry_multiplicity
 _atom_site_fract_x
 _atom_site_fract_y
 _atom_site_fract_z
 _atom_site_occupancy
  Te  Te0  1  0.000000  0.000000  0.705896  1
  Te  Te1  1  0.333333  0.666667  0.420999  1
  Te  Te2  1  0.333333  0.666667  0.518114  1
  Te  Te3  1  0.000000  0.000000  0.609324  1
  Mo  Mo4  1  0.000000  0.000000  0.093937  1
  Mo  Mo5  1  0.333333  0.666667  0.281822  1
  Mo  Mo6  1  0.333333  0.666667  0.657650  1
  W  W7  1  0.000000  0.000000  0.469570  1
  Se  Se8  1  0.333333  0.666667  0.051348  1
  Se  Se9  1  0.333333  0.666667  0.136502  1
  S  S10  1  0.000000  0.000000  0.320537  1
  S  S11  1  0.000000  0.000000  0.243050  1
