# generated using pymatgen
data_Y(PO3)3
_symmetry_space_group_name_H-M   'P 1'
_cell_length_a   8.04316625
_cell_length_b   8.04316625
_cell_length_c   10.24883994
_cell_angle_alpha   57.03131082
_cell_angle_beta   57.03131082
_cell_angle_gamma   51.10244387
_symmetry_Int_Tables_number   1
_chemical_formula_structural   Y(PO3)3
_chemical_formula_sum   'Y2 P6 O18'
_cell_volume   411.57671991
_cell_formula_units_Z   2
loop_
 _symmetry_equiv_pos_site_id
 _symmetry_equiv_pos_as_xyz
  1  'x, y, z'
loop_
 _atom_site_type_symbol
 _atom_site_label
 _atom_site_symmetry_multiplicity
 _atom_site_fract_x
 _atom_site_fract_y
 _atom_site_fract_z
 _atom_site_occupancy
  Y  Y0  1  0.694559  0.205182  0.250096  1
  Y  Y1  1  0.205182  0.694559  0.750096  1
  P  P2  1  0.398493  0.190801  0.087344  1
  P  P3  1  0.190801  0.398493  0.587344  1
  P  P4  1  0.624387  0.779944  0.991494  1
  P  P5  1  0.779944  0.624387  0.491494  1
  P  P6  1  0.203525  0.996846  0.914915  1
  P  P7  1  0.996846  0.203525  0.414915  1
  O  O8  1  0.530439  0.935037  0.091618  1
  O  O9  1  0.935037  0.530439  0.591618  1
  O  O10  1  0.457885  0.917488  0.887456  1
  O  O11  1  0.917488  0.457885  0.387456  1
  O  O12  1  0.171561  0.199553  0.751532  1
  O  O13  1  0.199553  0.171561  0.251532  1
  O  O14  1  0.541933  0.228957  0.107571  1
  O  O15  1  0.228957  0.541933  0.607571  1
  O  O16  1  0.310315  0.350662  0.944029  1
  O  O17  1  0.350662  0.310315  0.444029  1
  O  O18  1  0.611270  0.568098  0.113831  1
  O  O19  1  0.568098  0.611270  0.613831  1
  O  O20  1  0.848275  0.761660  0.870869  1
  O  O21  1  0.761660  0.848275  0.370869  1
  O  O22  1  0.043555  0.079885  0.060872  1
  O  O23  1  0.079885  0.043555  0.560872  1
  O  O24  1  0.196055  0.821434  0.905873  1
  O  O25  1  0.821434  0.196055  0.405873  1
