# generated using pymatgen
data_La4MnS6O
_symmetry_space_group_name_H-M   'P 1'
_cell_length_a   9.50805460
_cell_length_b   9.50805460
_cell_length_c   6.86594100
_cell_angle_alpha   90.00000000
_cell_angle_beta   90.00000000
_cell_angle_gamma   120.00000419
_symmetry_Int_Tables_number   1
_chemical_formula_structural   La4MnS6O
_chemical_formula_sum   'La8 Mn2 S12 O2'
_cell_volume   537.54399509
_cell_formula_units_Z   2
loop_
 _symmetry_equiv_pos_site_id
 _symmetry_equiv_pos_as_xyz
  1  'x, y, z'
loop_
 _atom_site_type_symbol
 _atom_site_label
 _atom_site_symmetry_multiplicity
 _atom_site_fract_x
 _atom_site_fract_y
 _atom_site_fract_z
 _atom_site_occupancy
  La  La0  1  0.666667  0.333333  0.714874  1
  La  La1  1  0.333333  0.666667  0.214874  1
  La  La2  1  0.197273  0.802727  0.682985  1
  La  La3  1  0.394546  0.197273  0.182985  1
  La  La4  1  0.802727  0.605454  0.182985  1
  La  La5  1  0.197273  0.394546  0.682985  1
  La  La6  1  0.605454  0.802727  0.682985  1
  La  La7  1  0.802727  0.197273  0.182985  1
  Mn  Mn8  1  0.000000  0.000000  0.484487  1
  Mn  Mn9  1  0.000000  0.000000  0.984487  1
  S  S10  1  0.530862  0.061725  0.460864  1
  S  S11  1  0.469138  0.938275  0.960864  1
  S  S12  1  0.061725  0.530862  0.960864  1
  S  S13  1  0.530862  0.469138  0.460864  1
  S  S14  1  0.876490  0.123510  0.785240  1
  S  S15  1  0.752981  0.876490  0.285240  1
  S  S16  1  0.123510  0.247019  0.285240  1
  S  S17  1  0.876490  0.752981  0.785240  1
  S  S18  1  0.469138  0.530862  0.960864  1
  S  S19  1  0.938275  0.469138  0.460864  1
  S  S20  1  0.123510  0.876490  0.285240  1
  S  S21  1  0.247019  0.123510  0.785240  1
  O  O22  1  0.333333  0.666667  0.560845  1
  O  O23  1  0.666667  0.333333  0.060845  1
