# generated using pymatgen
data_MgV2O4
_symmetry_space_group_name_H-M   'P 1'
_cell_length_a   6.04518388
_cell_length_b   10.49632387
_cell_length_c   6.05778819
_cell_angle_alpha   73.13344257
_cell_angle_beta   60.04156555
_cell_angle_gamma   90.05496694
_symmetry_Int_Tables_number   1
_chemical_formula_structural   MgV2O4
_chemical_formula_sum   'Mg4 V8 O16'
_cell_volume   313.72705059
_cell_formula_units_Z   4
loop_
 _symmetry_equiv_pos_site_id
 _symmetry_equiv_pos_as_xyz
  1  'x, y, z'
loop_
 _atom_site_type_symbol
 _atom_site_label
 _atom_site_symmetry_multiplicity
 _atom_site_fract_x
 _atom_site_fract_y
 _atom_site_fract_z
 _atom_site_occupancy
  Mg  Mg0  1  0.003194  0.000843  0.993660  1
  Mg  Mg1  1  0.503346  0.500784  0.993401  1
  Mg  Mg2  1  0.939899  0.313200  0.119644  1
  Mg  Mg3  1  0.439933  0.813052  0.120144  1
  V  V4  1  0.932205  0.812779  0.628059  1
  V  V5  1  0.685571  0.060407  0.629519  1
  V  V6  1  0.439642  0.812593  0.628111  1
  V  V7  1  0.370455  0.122877  0.259100  1
  V  V8  1  0.870040  0.623148  0.259722  1
  V  V9  1  0.432628  0.312648  0.627734  1
  V  V10  1  0.185113  0.560287  0.628712  1
  V  V11  1  0.940036  0.312718  0.627142  1
  O  O12  1  0.572207  0.192440  0.860301  1
  O  O13  1  0.069694  0.692878  0.860257  1
  O  O14  1  0.297525  0.431253  0.400222  1
  O  O15  1  0.799663  0.930957  0.400732  1
  O  O16  1  0.568862  0.190249  0.390767  1
  O  O17  1  0.069539  0.688934  0.389853  1
  O  O18  1  0.806504  0.426307  0.386738  1
  O  O19  1  0.307177  0.925742  0.386096  1
  O  O20  1  0.040943  0.189377  0.388128  1
  O  O21  1  0.541339  0.689372  0.388863  1
  O  O22  1  0.841704  0.436034  0.854649  1
  O  O23  1  0.341966  0.936167  0.853570  1
  O  O24  1  0.070833  0.201559  0.859448  1
  O  O25  1  0.569801  0.701573  0.859922  1
  O  O26  1  0.305843  0.435651  0.851911  1
  O  O27  1  0.804324  0.936164  0.853596  1
