# generated using pymatgen
data_Ca3ReN4
_symmetry_space_group_name_H-M   'P 1'
_cell_length_a   17.08445964
_cell_length_b   17.08445964
_cell_length_c   9.39111830
_cell_angle_alpha   90.00000000
_cell_angle_beta   90.00000000
_cell_angle_gamma   119.99999922
_symmetry_Int_Tables_number   1
_chemical_formula_structural   Ca3ReN4
_chemical_formula_sum   'Ca54 Re18 N72'
_cell_volume   2373.83451883
_cell_formula_units_Z   18
loop_
 _symmetry_equiv_pos_site_id
 _symmetry_equiv_pos_as_xyz
  1  'x, y, z'
loop_
 _atom_site_type_symbol
 _atom_site_label
 _atom_site_symmetry_multiplicity
 _atom_site_fract_x
 _atom_site_fract_y
 _atom_site_fract_z
 _atom_site_occupancy
  Ca  Ca0  1  0.000000  0.000000  0.750584  1
  Ca  Ca1  1  0.000000  0.000000  0.250584  1
  Ca  Ca2  1  0.666667  0.333333  0.812022  1
  Ca  Ca3  1  0.333333  0.666667  0.312022  1
  Ca  Ca4  1  0.333333  0.666667  0.836642  1
  Ca  Ca5  1  0.666667  0.333333  0.336642  1
  Ca  Ca6  1  0.668830  0.691278  0.847564  1
  Ca  Ca7  1  0.308722  0.977552  0.847564  1
  Ca  Ca8  1  0.022448  0.331170  0.847564  1
  Ca  Ca9  1  0.691278  0.668830  0.347564  1
  Ca  Ca10  1  0.977552  0.308722  0.347564  1
  Ca  Ca11  1  0.331170  0.022448  0.347564  1
  Ca  Ca12  1  0.687932  0.031355  0.681574  1
  Ca  Ca13  1  0.968645  0.656578  0.681574  1
  Ca  Ca14  1  0.343422  0.312068  0.681574  1
  Ca  Ca15  1  0.031355  0.687932  0.181574  1
  Ca  Ca16  1  0.656578  0.968645  0.181574  1
  Ca  Ca17  1  0.312068  0.343422  0.181574  1
  Ca  Ca18  1  0.777171  0.866046  0.552344  1
  Ca  Ca19  1  0.133954  0.911125  0.552344  1
  Ca  Ca20  1  0.088875  0.222829  0.552344  1
  Ca  Ca21  1  0.866046  0.777171  0.052344  1
  Ca  Ca22  1  0.911125  0.133954  0.052344  1
  Ca  Ca23  1  0.222829  0.088875  0.052344  1
  Ca  Ca24  1  0.768234  0.918134  0.894343  1
  Ca  Ca25  1  0.081866  0.850100  0.894343  1
  Ca  Ca26  1  0.149900  0.231766  0.894343  1
  Ca  Ca27  1  0.918134  0.768234  0.394343  1
  Ca  Ca28  1  0.850100  0.081866  0.394343  1
  Ca  Ca29  1  0.231766  0.149900  0.394343  1
  Ca  Ca30  1  0.819900  0.256878  0.650969  1
  Ca  Ca31  1  0.743122  0.563020  0.650969  1
  Ca  Ca32  1  0.436980  0.180100  0.650969  1
  Ca  Ca33  1  0.256878  0.819900  0.150969  1
  Ca  Ca34  1  0.563020  0.743122  0.150969  1
  Ca  Ca35  1  0.180100  0.436980  0.150969  1
  Ca  Ca36  1  0.478180  0.595840  0.656506  1
  Ca  Ca37  1  0.404160  0.882340  0.656506  1
  Ca  Ca38  1  0.117660  0.521820  0.656506  1
  Ca  Ca39  1  0.595840  0.478180  0.156506  1
  Ca  Ca40  1  0.882340  0.404160  0.156506  1
  Ca  Ca41  1  0.521820  0.117660  0.156506  1
  Ca  Ca42  1  0.470076  0.893707  0.003090  1
  Ca  Ca43  1  0.106293  0.576369  0.003090  1
  Ca  Ca44  1  0.423631  0.529924  0.003090  1
  Ca  Ca45  1  0.893707  0.470076  0.503090  1
  Ca  Ca46  1  0.576369  0.106293  0.503090  1
  Ca  Ca47  1  0.529924  0.423631  0.503090  1
  Ca  Ca48  1  0.741310  0.186265  0.991859  1
  Ca  Ca49  1  0.813735  0.555045  0.991859  1
  Ca  Ca50  1  0.444955  0.258690  0.991859  1
  Ca  Ca51  1  0.186265  0.741310  0.491859  1
  Ca  Ca52  1  0.555045  0.813735  0.491859  1
  Ca  Ca53  1  0.258690  0.444955  0.491859  1
  Re  Re54  1  0.901625  0.130434  0.709500  1
  Re  Re55  1  0.869566  0.771190  0.709500  1
  Re  Re56  1  0.228810  0.098375  0.709500  1
  Re  Re57  1  0.130434  0.901625  0.209500  1
  Re  Re58  1  0.771190  0.869566  0.209500  1
  Re  Re59  1  0.098375  0.228810  0.209500  1
  Re  Re60  1  0.892068  0.445029  0.840642  1
  Re  Re61  1  0.554971  0.447040  0.840642  1
  Re  Re62  1  0.552960  0.107932  0.840642  1
  Re  Re63  1  0.445029  0.892068  0.340642  1
  Re  Re64  1  0.447040  0.554971  0.340642  1
  Re  Re65  1  0.107932  0.552960  0.340642  1
  Re  Re66  1  0.558430  0.792464  0.831940  1
  Re  Re67  1  0.207536  0.765964  0.831940  1
  Re  Re68  1  0.234036  0.441570  0.831940  1
  Re  Re69  1  0.792464  0.558430  0.331940  1
  Re  Re70  1  0.765964  0.207536  0.331940  1
  Re  Re71  1  0.441570  0.234036  0.331940  1
  N  N72  1  0.001524  0.136956  0.796624  1
  N  N73  1  0.863044  0.864569  0.796624  1
  N  N74  1  0.135431  0.998476  0.796624  1
  N  N75  1  0.136956  0.001524  0.296624  1
  N  N76  1  0.864569  0.863044  0.296624  1
  N  N77  1  0.998476  0.135431  0.296624  1
  N  N78  1  0.609203  0.878121  0.973600  1
  N  N79  1  0.121879  0.731083  0.973600  1
  N  N80  1  0.268917  0.390797  0.973600  1
  N  N81  1  0.878121  0.609203  0.473600  1
  N  N82  1  0.731083  0.121879  0.473600  1
  N  N83  1  0.390797  0.268917  0.473600  1
  N  N84  1  0.940063  0.213087  0.560399  1
  N  N85  1  0.786913  0.726976  0.560399  1
  N  N86  1  0.273024  0.059937  0.560399  1
  N  N87  1  0.213087  0.940063  0.060399  1
  N  N88  1  0.726976  0.786913  0.060399  1
  N  N89  1  0.059937  0.273024  0.060399  1
  N  N90  1  0.656860  0.164459  0.731684  1
  N  N91  1  0.835541  0.492403  0.731684  1
  N  N92  1  0.507598  0.343140  0.731684  1
  N  N93  1  0.164459  0.656860  0.231684  1
  N  N94  1  0.492403  0.835541  0.231684  1
  N  N95  1  0.343140  0.507598  0.231684  1
  N  N96  1  0.803290  0.340724  0.925687  1
  N  N97  1  0.659276  0.462566  0.925687  1
  N  N98  1  0.537434  0.196710  0.925687  1
  N  N99  1  0.340724  0.803290  0.425687  1
  N  N100  1  0.462566  0.659276  0.425687  1
  N  N101  1  0.196710  0.537434  0.425687  1
  N  N102  1  0.649008  0.813781  0.701999  1
  N  N103  1  0.186219  0.835227  0.701999  1
  N  N104  1  0.164773  0.350992  0.701999  1
  N  N105  1  0.813781  0.649008  0.201999  1
  N  N106  1  0.835227  0.186219  0.201999  1
  N  N107  1  0.350992  0.164773  0.201999  1
  N  N108  1  0.578757  0.050787  0.987242  1
  N  N109  1  0.949213  0.527970  0.987242  1
  N  N110  1  0.472030  0.421243  0.987242  1
  N  N111  1  0.050787  0.578757  0.487242  1
  N  N112  1  0.527970  0.949213  0.487242  1
  N  N113  1  0.421243  0.472030  0.487242  1
  N  N114  1  0.962395  0.416533  0.723513  1
  N  N115  1  0.583467  0.545862  0.723513  1
  N  N116  1  0.454138  0.037605  0.723513  1
  N  N117  1  0.416533  0.962395  0.223513  1
  N  N118  1  0.545862  0.583467  0.223513  1
  N  N119  1  0.037605  0.454138  0.223513  1
  N  N120  1  0.836759  0.160367  0.837575  1
  N  N121  1  0.839633  0.676392  0.837575  1
  N  N122  1  0.323608  0.163241  0.837575  1
  N  N123  1  0.160367  0.836759  0.337575  1
  N  N124  1  0.676392  0.839633  0.337575  1
  N  N125  1  0.163241  0.323608  0.337575  1
  N  N126  1  0.520402  0.678242  0.907755  1
  N  N127  1  0.321758  0.842160  0.907755  1
  N  N128  1  0.157840  0.479598  0.907755  1
  N  N129  1  0.678242  0.520402  0.407755  1
  N  N130  1  0.842160  0.321758  0.407755  1
  N  N131  1  0.479598  0.157840  0.407755  1
  N  N132  1  0.820621  0.014128  0.641443  1
  N  N133  1  0.985872  0.806494  0.641443  1
  N  N134  1  0.193506  0.179379  0.641443  1
  N  N135  1  0.014128  0.820621  0.141443  1
  N  N136  1  0.806494  0.985872  0.141443  1
  N  N137  1  0.179379  0.193506  0.141443  1
  N  N138  1  0.464174  0.797945  0.747482  1
  N  N139  1  0.202055  0.666230  0.747482  1
  N  N140  1  0.333770  0.535826  0.747482  1
  N  N141  1  0.797945  0.464174  0.247482  1
  N  N142  1  0.666230  0.202055  0.247482  1
  N  N143  1  0.535826  0.333770  0.247482  1
