# generated using pymatgen
data_MoWS4
_symmetry_space_group_name_H-M   'P 1'
_cell_length_a   3.18840995
_cell_length_b   3.18840995
_cell_length_c   22.37003200
_cell_angle_alpha   90.00000000
_cell_angle_beta   90.00000000
_cell_angle_gamma   119.99999896
_symmetry_Int_Tables_number   1
_chemical_formula_structural   MoWS4
_chemical_formula_sum   'Mo1 W1 S4'
_cell_volume   196.94526919
_cell_formula_units_Z   1
loop_
 _symmetry_equiv_pos_site_id
 _symmetry_equiv_pos_as_xyz
  1  'x, y, z'
loop_
 _atom_site_type_symbol
 _atom_site_label
 _atom_site_symmetry_multiplicity
 _atom_site_fract_x
 _atom_site_fract_y
 _atom_site_fract_z
 _atom_site_occupancy
  Mo  Mo0  1  0.000000  0.000000  0.150445  1
  W  W1  1  0.333333  0.666667  0.451418  1
  S  S2  1  0.000000  0.000000  0.521772  1
  S  S3  1  0.333333  0.666667  0.080401  1
  S  S4  1  0.333333  0.666667  0.220481  1
  S  S5  1  0.000000  0.000000  0.381087  1
