# generated using pymatgen
data_KY(PO3)4
_symmetry_space_group_name_H-M   'P 1'
_cell_length_a   8.44700800
_cell_length_b   7.34971400
_cell_length_c   7.96232552
_cell_angle_alpha   88.50798569
_cell_angle_beta   90.00000000
_cell_angle_gamma   90.00000000
_symmetry_Int_Tables_number   1
_chemical_formula_structural   KY(PO3)4
_chemical_formula_sum   'K2 Y2 P8 O24'
_cell_volume   494.15820085
_cell_formula_units_Z   2
loop_
 _symmetry_equiv_pos_site_id
 _symmetry_equiv_pos_as_xyz
  1  'x, y, z'
loop_
 _atom_site_type_symbol
 _atom_site_label
 _atom_site_symmetry_multiplicity
 _atom_site_fract_x
 _atom_site_fract_y
 _atom_site_fract_z
 _atom_site_occupancy
  K  K0  1  0.052451  0.732855  0.717010  1
  K  K1  1  0.552451  0.267145  0.282990  1
  Y  Y2  1  0.741213  0.761781  0.242038  1
  Y  Y3  1  0.241213  0.238219  0.757962  1
  P  P4  1  0.992556  0.386830  0.397963  1
  P  P5  1  0.492556  0.613170  0.602037  1
  P  P6  1  0.089185  0.004895  0.381828  1
  P  P7  1  0.589185  0.995105  0.618172  1
  P  P8  1  0.322378  0.902492  0.098738  1
  P  P9  1  0.822378  0.097508  0.901262  1
  P  P10  1  0.115371  0.565647  0.092101  1
  P  P11  1  0.615371  0.434353  0.907899  1
  O  O12  1  0.051781  0.391710  0.575028  1
  O  O13  1  0.551781  0.608290  0.424972  1
  O  O14  1  0.838368  0.476414  0.353596  1
  O  O15  1  0.338368  0.523586  0.646404  1
  O  O16  1  0.979548  0.179276  0.339272  1
  O  O17  1  0.479548  0.820724  0.660728  1
  O  O18  1  0.185313  0.035124  0.537430  1
  O  O19  1  0.685313  0.964876  0.462570  1
  O  O20  1  0.984718  0.839581  0.383164  1
  O  O21  1  0.484718  0.160419  0.616836  1
  O  O22  1  0.202729  0.009840  0.220489  1
  O  O23  1  0.702729  0.990160  0.779511  1
  O  O24  1  0.468574  0.321433  0.928417  1
  O  O25  1  0.968574  0.678567  0.071583  1
  O  O26  1  0.645117  0.569243  0.042718  1
  O  O27  1  0.145117  0.430757  0.957282  1
  O  O28  1  0.770178  0.307848  0.893428  1
  O  O29  1  0.270178  0.692152  0.106572  1
  O  O30  1  0.630775  0.534927  0.725671  1
  O  O31  1  0.130775  0.465073  0.274329  1
  O  O32  1  0.791330  0.019154  0.074260  1
  O  O33  1  0.291330  0.980846  0.925740  1
  O  O34  1  0.985246  0.090467  0.828207  1
  O  O35  1  0.485246  0.909533  0.171793  1
