# generated using pymatgen
data_NbZn2N3
_symmetry_space_group_name_H-M   'P 1'
_cell_length_a   5.74244941
_cell_length_b   5.74244941
_cell_length_c   5.44150200
_cell_angle_alpha   90.00000000
_cell_angle_beta   90.00000000
_cell_angle_gamma   119.20914519
_symmetry_Int_Tables_number   1
_chemical_formula_structural   NbZn2N3
_chemical_formula_sum   'Nb2 Zn4 N6'
_cell_volume   156.62095835
_cell_formula_units_Z   2
loop_
 _symmetry_equiv_pos_site_id
 _symmetry_equiv_pos_as_xyz
  1  'x, y, z'
loop_
 _atom_site_type_symbol
 _atom_site_label
 _atom_site_symmetry_multiplicity
 _atom_site_fract_x
 _atom_site_fract_y
 _atom_site_fract_z
 _atom_site_occupancy
  Nb  Nb0  1  0.330106  0.330106  0.513120  1
  Nb  Nb1  1  0.669894  0.669894  0.013120  1
  Zn  Zn2  1  0.666416  0.008929  0.503008  1
  Zn  Zn3  1  0.008929  0.666416  0.503008  1
  Zn  Zn4  1  0.333584  0.991071  0.003008  1
  Zn  Zn5  1  0.991071  0.333584  0.003008  1
  N  N6  1  0.670491  0.990174  0.124909  1
  N  N7  1  0.990174  0.670491  0.124909  1
  N  N8  1  0.329509  0.009826  0.624909  1
  N  N9  1  0.009826  0.329509  0.624909  1
  N  N10  1  0.343683  0.343683  0.143044  1
  N  N11  1  0.656317  0.656317  0.643044  1
