# generated using pymatgen
data_RbGe2N3
_symmetry_space_group_name_H-M   'P 1'
_cell_length_a   5.92220380
_cell_length_b   5.92220380
_cell_length_c   5.38652800
_cell_angle_alpha   90.00000000
_cell_angle_beta   90.00000000
_cell_angle_gamma   118.14778826
_symmetry_Int_Tables_number   1
_chemical_formula_structural   RbGe2N3
_chemical_formula_sum   'Rb2 Ge4 N6'
_cell_volume   166.57624252
_cell_formula_units_Z   2
loop_
 _symmetry_equiv_pos_site_id
 _symmetry_equiv_pos_as_xyz
  1  'x, y, z'
loop_
 _atom_site_type_symbol
 _atom_site_label
 _atom_site_symmetry_multiplicity
 _atom_site_fract_x
 _atom_site_fract_y
 _atom_site_fract_z
 _atom_site_occupancy
  Rb  Rb0  1  0.348106  0.348106  0.519370  1
  Rb  Rb1  1  0.651894  0.651894  0.019370  1
  Ge  Ge2  1  0.686396  0.034316  0.506975  1
  Ge  Ge3  1  0.034316  0.686396  0.506975  1
  Ge  Ge4  1  0.313604  0.965684  0.006975  1
  Ge  Ge5  1  0.965684  0.313604  0.006975  1
  N  N6  1  0.642333  0.124210  0.174414  1
  N  N7  1  0.124210  0.642333  0.174414  1
  N  N8  1  0.357667  0.875790  0.674414  1
  N  N9  1  0.875790  0.357667  0.674414  1
  N  N10  1  0.183743  0.183743  0.029851  1
  N  N11  1  0.816257  0.816257  0.529851  1
