# generated using pymatgen
data_LiMnBO3
_symmetry_space_group_name_H-M   'P 1'
_cell_length_a   6.38936600
_cell_length_b   8.27042000
_cell_length_c   8.86599350
_cell_angle_alpha   117.80167259
_cell_angle_beta   68.87953920
_cell_angle_gamma   90.00000000
_symmetry_Int_Tables_number   1
_chemical_formula_structural   LiMnBO3
_chemical_formula_sum   'Li6 Mn6 B6 O18'
_cell_volume   378.48050003
_cell_formula_units_Z   6
loop_
 _symmetry_equiv_pos_site_id
 _symmetry_equiv_pos_as_xyz
  1  'x, y, z'
loop_
 _atom_site_type_symbol
 _atom_site_label
 _atom_site_symmetry_multiplicity
 _atom_site_fract_x
 _atom_site_fract_y
 _atom_site_fract_z
 _atom_site_occupancy
  Li  Li0  1  0.891468  0.701429  0.717065  1
  Li  Li1  1  0.391468  0.701429  0.717065  1
  Li  Li2  1  0.757818  0.282935  0.984365  1
  Li  Li3  1  0.257818  0.282935  0.984365  1
  Li  Li4  1  0.100715  0.015635  0.298571  1
  Li  Li5  1  0.600715  0.015635  0.298571  1
  Mn  Mn6  1  0.494759  0.638881  0.010482  1
  Mn  Mn7  1  0.185800  0.989518  0.628399  1
  Mn  Mn8  1  0.319441  0.371601  0.361119  1
  Mn  Mn9  1  0.994759  0.638881  0.010482  1
  Mn  Mn10  1  0.685800  0.989518  0.628399  1
  Mn  Mn11  1  0.819441  0.371601  0.361119  1
  B  B12  1  0.916667  0.333333  0.666667  1
  B  B13  1  0.416667  0.333333  0.666667  1
  B  B14  1  0.000000  0.000000  0.000000  1
  B  B15  1  0.500000  0.000000  0.000000  1
  B  B16  1  0.083333  0.666667  0.333333  1
  B  B17  1  0.583333  0.666667  0.333333  1
  O  O18  1  0.960809  0.139654  0.578381  1
  O  O19  1  0.460809  0.139654  0.578381  1
  O  O20  1  0.819827  0.438727  0.860346  1
  O  O21  1  0.319827  0.438727  0.860346  1
  O  O22  1  0.969363  0.421619  0.561273  1
  O  O23  1  0.469363  0.421619  0.561273  1
  O  O24  1  0.539290  0.115014  0.921420  1
  O  O25  1  0.039290  0.115014  0.921420  1
  O  O26  1  0.557507  0.806406  0.884986  1
  O  O27  1  0.057507  0.806406  0.884986  1
  O  O28  1  0.903203  0.078580  0.193594  1
  O  O29  1  0.403203  0.078580  0.193594  1
  O  O30  1  0.139529  0.747919  0.220943  1
  O  O31  1  0.639529  0.747919  0.220943  1
  O  O32  1  0.123959  0.473024  0.252082  1
  O  O33  1  0.623959  0.473024  0.252082  1
  O  O34  1  0.986512  0.779057  0.526976  1
  O  O35  1  0.486512  0.779057  0.526976  1
