# generated using pymatgen
data_RbMgBO3
_symmetry_space_group_name_H-M   'P 1'
_cell_length_a   7.02225200
_cell_length_b   7.02225200
_cell_length_c   7.02225200
_cell_angle_alpha   90.00000000
_cell_angle_beta   90.00000000
_cell_angle_gamma   90.00000000
_symmetry_Int_Tables_number   1
_chemical_formula_structural   RbMgBO3
_chemical_formula_sum   'Rb4 Mg4 B4 O12'
_cell_volume   346.28145320
_cell_formula_units_Z   4
loop_
 _symmetry_equiv_pos_site_id
 _symmetry_equiv_pos_as_xyz
  1  'x, y, z'
loop_
 _atom_site_type_symbol
 _atom_site_label
 _atom_site_symmetry_multiplicity
 _atom_site_fract_x
 _atom_site_fract_y
 _atom_site_fract_z
 _atom_site_occupancy
  Rb  Rb0  1  0.608594  0.391406  0.891406  1
  Rb  Rb1  1  0.108594  0.108594  0.108594  1
  Rb  Rb2  1  0.891406  0.608594  0.391406  1
  Rb  Rb3  1  0.391406  0.891406  0.608594  1
  Mg  Mg4  1  0.109634  0.609634  0.890366  1
  Mg  Mg5  1  0.609634  0.890366  0.109634  1
  Mg  Mg6  1  0.890366  0.109634  0.609634  1
  Mg  Mg7  1  0.390366  0.390366  0.390366  1
  B  B8  1  0.147128  0.352872  0.647128  1
  B  B9  1  0.352872  0.647128  0.147128  1
  B  B10  1  0.852872  0.852872  0.852872  1
  B  B11  1  0.647128  0.147128  0.352872  1
  O  O12  1  0.001152  0.346629  0.779629  1
  O  O13  1  0.220371  0.501152  0.153371  1
  O  O14  1  0.846629  0.720371  0.998848  1
  O  O15  1  0.501152  0.153371  0.220371  1
  O  O16  1  0.720371  0.998848  0.846629  1
  O  O17  1  0.346629  0.779629  0.001152  1
  O  O18  1  0.998848  0.846629  0.720371  1
  O  O19  1  0.779629  0.001152  0.346629  1
  O  O20  1  0.153371  0.220371  0.501152  1
  O  O21  1  0.498848  0.653371  0.279629  1
  O  O22  1  0.279629  0.498848  0.653371  1
  O  O23  1  0.653371  0.279629  0.498848  1
