# generated using pymatgen
data_Mg2NbN3
_symmetry_space_group_name_H-M   'P 1'
_cell_length_a   5.91785240
_cell_length_b   5.91785240
_cell_length_c   5.30461700
_cell_angle_alpha   90.00000000
_cell_angle_beta   90.00000000
_cell_angle_gamma   119.00586817
_symmetry_Int_Tables_number   1
_chemical_formula_structural   Mg2NbN3
_chemical_formula_sum   'Mg4 Nb2 N6'
_cell_volume   162.47138822
_cell_formula_units_Z   2
loop_
 _symmetry_equiv_pos_site_id
 _symmetry_equiv_pos_as_xyz
  1  'x, y, z'
loop_
 _atom_site_type_symbol
 _atom_site_label
 _atom_site_symmetry_multiplicity
 _atom_site_fract_x
 _atom_site_fract_y
 _atom_site_fract_z
 _atom_site_occupancy
  Mg  Mg0  1  0.992538  0.330660  0.982576  1
  Mg  Mg1  1  0.330660  0.992538  0.982576  1
  Mg  Mg2  1  0.007462  0.669340  0.482576  1
  Mg  Mg3  1  0.669340  0.007462  0.482576  1
  Nb  Nb4  1  0.667977  0.667977  0.981522  1
  Nb  Nb5  1  0.332023  0.332023  0.481522  1
  N  N6  1  0.018879  0.331430  0.382173  1
  N  N7  1  0.331430  0.018879  0.382173  1
  N  N8  1  0.981121  0.668570  0.882173  1
  N  N9  1  0.668570  0.981121  0.882173  1
  N  N10  1  0.653165  0.653165  0.360980  1
  N  N11  1  0.346835  0.346835  0.860980  1
