# generated using pymatgen
data_Li7BiN4
_symmetry_space_group_name_H-M   'P 1'
_cell_length_a   10.12579000
_cell_length_b   10.12579000
_cell_length_c   10.12579000
_cell_angle_alpha   90.00000000
_cell_angle_beta   90.00000000
_cell_angle_gamma   90.00000000
_symmetry_Int_Tables_number   1
_chemical_formula_structural   Li7BiN4
_chemical_formula_sum   'Li56 Bi8 N32'
_cell_volume   1038.21368411
_cell_formula_units_Z   8
loop_
 _symmetry_equiv_pos_site_id
 _symmetry_equiv_pos_as_xyz
  1  'x, y, z'
loop_
 _atom_site_type_symbol
 _atom_site_label
 _atom_site_symmetry_multiplicity
 _atom_site_fract_x
 _atom_site_fract_y
 _atom_site_fract_z
 _atom_site_occupancy
  Li  Li0  1  0.000000  0.000000  0.500000  1
  Li  Li1  1  0.000000  0.500000  0.000000  1
  Li  Li2  1  0.500000  0.000000  0.000000  1
  Li  Li3  1  0.500000  0.000000  0.500000  1
  Li  Li4  1  0.500000  0.500000  0.000000  1
  Li  Li5  1  0.000000  0.500000  0.500000  1
  Li  Li6  1  0.000000  0.500000  0.250000  1
  Li  Li7  1  0.500000  0.750000  0.000000  1
  Li  Li8  1  0.250000  0.000000  0.500000  1
  Li  Li9  1  0.500000  0.250000  0.000000  1
  Li  Li10  1  0.750000  0.000000  0.500000  1
  Li  Li11  1  0.000000  0.500000  0.750000  1
  Li  Li12  1  0.253875  0.746125  0.253875  1
  Li  Li13  1  0.746125  0.253875  0.253875  1
  Li  Li14  1  0.253875  0.253875  0.746125  1
  Li  Li15  1  0.746125  0.746125  0.746125  1
  Li  Li16  1  0.753875  0.753875  0.246125  1
  Li  Li17  1  0.246125  0.753875  0.753875  1
  Li  Li18  1  0.753875  0.246125  0.753875  1
  Li  Li19  1  0.246125  0.246125  0.246125  1
  Li  Li20  1  0.500000  0.500000  0.229611  1
  Li  Li21  1  0.500000  0.770389  0.500000  1
  Li  Li22  1  0.229611  0.500000  0.500000  1
  Li  Li23  1  0.500000  0.229611  0.500000  1
  Li  Li24  1  0.770389  0.500000  0.500000  1
  Li  Li25  1  0.500000  0.500000  0.770389  1
  Li  Li26  1  0.000000  0.729611  0.000000  1
  Li  Li27  1  0.000000  0.000000  0.270389  1
  Li  Li28  1  0.729611  0.000000  0.000000  1
  Li  Li29  1  0.000000  0.000000  0.729611  1
  Li  Li30  1  0.270389  0.000000  0.000000  1
  Li  Li31  1  0.000000  0.270389  0.000000  1
  Li  Li32  1  0.504460  0.730153  0.251279  1
  Li  Li33  1  0.269847  0.748721  0.504460  1
  Li  Li34  1  0.251279  0.495540  0.269847  1
  Li  Li35  1  0.495540  0.269847  0.251279  1
  Li  Li36  1  0.730153  0.251279  0.504460  1
  Li  Li37  1  0.748721  0.504460  0.269847  1
  Li  Li38  1  0.504460  0.269847  0.748721  1
  Li  Li39  1  0.269847  0.251279  0.495540  1
  Li  Li40  1  0.251279  0.504460  0.730153  1
  Li  Li41  1  0.495540  0.730153  0.748721  1
  Li  Li42  1  0.730153  0.748721  0.495540  1
  Li  Li43  1  0.748721  0.495540  0.730153  1
  Li  Li44  1  0.004460  0.751279  0.230153  1
  Li  Li45  1  0.769847  0.004460  0.248721  1
  Li  Li46  1  0.751279  0.769847  0.995540  1
  Li  Li47  1  0.995540  0.751279  0.769847  1
  Li  Li48  1  0.230153  0.004460  0.751279  1
  Li  Li49  1  0.248721  0.769847  0.004460  1
  Li  Li50  1  0.004460  0.248721  0.769847  1
  Li  Li51  1  0.769847  0.995540  0.751279  1
  Li  Li52  1  0.751279  0.230153  0.004460  1
  Li  Li53  1  0.995540  0.248721  0.230153  1
  Li  Li54  1  0.230153  0.995540  0.248721  1
  Li  Li55  1  0.248721  0.230153  0.995540  1
  Bi  Bi56  1  0.500000  0.500000  0.500000  1
  Bi  Bi57  1  0.000000  0.000000  0.000000  1
  Bi  Bi58  1  0.500000  0.000000  0.250000  1
  Bi  Bi59  1  0.000000  0.750000  0.500000  1
  Bi  Bi60  1  0.250000  0.500000  0.000000  1
  Bi  Bi61  1  0.000000  0.250000  0.500000  1
  Bi  Bi62  1  0.750000  0.500000  0.000000  1
  Bi  Bi63  1  0.500000  0.000000  0.750000  1
  N  N64  1  0.376621  0.623379  0.376621  1
  N  N65  1  0.623379  0.376621  0.376621  1
  N  N66  1  0.376621  0.376621  0.623379  1
  N  N67  1  0.623379  0.623379  0.623379  1
  N  N68  1  0.876621  0.876621  0.123379  1
  N  N69  1  0.123379  0.876621  0.876621  1
  N  N70  1  0.876621  0.123379  0.876621  1
  N  N71  1  0.123379  0.123379  0.123379  1
  N  N72  1  0.377184  0.874782  0.127302  1
  N  N73  1  0.125218  0.872698  0.377184  1
  N  N74  1  0.127302  0.622816  0.125218  1
  N  N75  1  0.622816  0.125218  0.127302  1
  N  N76  1  0.874782  0.127302  0.377184  1
  N  N77  1  0.872698  0.377184  0.125218  1
  N  N78  1  0.377184  0.125218  0.872698  1
  N  N79  1  0.125218  0.127302  0.622816  1
  N  N80  1  0.127302  0.377184  0.874782  1
  N  N81  1  0.622816  0.874782  0.872698  1
  N  N82  1  0.874782  0.872698  0.622816  1
  N  N83  1  0.872698  0.622816  0.874782  1
  N  N84  1  0.877184  0.627302  0.374782  1
  N  N85  1  0.625218  0.877184  0.372698  1
  N  N86  1  0.627302  0.625218  0.122816  1
  N  N87  1  0.122816  0.627302  0.625218  1
  N  N88  1  0.374782  0.877184  0.627302  1
  N  N89  1  0.372698  0.625218  0.877184  1
  N  N90  1  0.877184  0.372698  0.625218  1
  N  N91  1  0.625218  0.122816  0.627302  1
  N  N92  1  0.627302  0.374782  0.877184  1
  N  N93  1  0.122816  0.372698  0.374782  1
  N  N94  1  0.374782  0.122816  0.372698  1
  N  N95  1  0.372698  0.374782  0.122816  1
