# generated using pymatgen
data_Mg2SbN3
_symmetry_space_group_name_H-M   'P 1'
_cell_length_a   5.96996377
_cell_length_b   5.96996377
_cell_length_c   5.42062800
_cell_angle_alpha   90.00000000
_cell_angle_beta   90.00000000
_cell_angle_gamma   120.16877199
_symmetry_Int_Tables_number   1
_chemical_formula_structural   Mg2SbN3
_chemical_formula_sum   'Mg4 Sb2 N6'
_cell_volume   167.02540203
_cell_formula_units_Z   2
loop_
 _symmetry_equiv_pos_site_id
 _symmetry_equiv_pos_as_xyz
  1  'x, y, z'
loop_
 _atom_site_type_symbol
 _atom_site_label
 _atom_site_symmetry_multiplicity
 _atom_site_fract_x
 _atom_site_fract_y
 _atom_site_fract_z
 _atom_site_occupancy
  Mg  Mg0  1  0.991762  0.332230  0.987976  1
  Mg  Mg1  1  0.332230  0.991762  0.987976  1
  Mg  Mg2  1  0.008238  0.667770  0.487976  1
  Mg  Mg3  1  0.667770  0.008238  0.487976  1
  Sb  Sb4  1  0.675594  0.675594  0.981026  1
  Sb  Sb5  1  0.324406  0.324406  0.481026  1
  N  N6  1  0.012943  0.335229  0.375969  1
  N  N7  1  0.335229  0.012943  0.375969  1
  N  N8  1  0.987057  0.664771  0.875969  1
  N  N9  1  0.664771  0.987057  0.875969  1
  N  N10  1  0.654637  0.654637  0.363084  1
  N  N11  1  0.345363  0.345363  0.863084  1
