# generated using pymatgen
data_PdF4
_symmetry_space_group_name_H-M   'P 1'
_cell_length_a   6.69143110
_cell_length_b   5.64944079
_cell_length_c   5.58209408
_cell_angle_alpha   73.13255756
_cell_angle_beta   53.89688145
_cell_angle_gamma   52.97056099
_symmetry_Int_Tables_number   1
_chemical_formula_structural   PdF4
_chemical_formula_sum   'Pd2 F8'
_cell_volume   135.42378856
_cell_formula_units_Z   2
loop_
 _symmetry_equiv_pos_site_id
 _symmetry_equiv_pos_as_xyz
  1  'x, y, z'
loop_
 _atom_site_type_symbol
 _atom_site_label
 _atom_site_symmetry_multiplicity
 _atom_site_fract_x
 _atom_site_fract_y
 _atom_site_fract_z
 _atom_site_occupancy
  Pd  Pd0  1  0.761794  0.238206  0.238206  1
  Pd  Pd1  1  0.011794  0.488206  0.488206  1
  F  F2  1  0.240281  0.070841  0.479329  1
  F  F3  1  0.209549  0.479329  0.070841  1
  F  F4  1  0.709267  0.479165  0.509459  1
  F  F5  1  0.302109  0.509459  0.479165  1
  F  F6  1  0.740541  0.947891  0.540733  1
  F  F7  1  0.770835  0.540733  0.947891  1
  F  F8  1  0.179159  0.009719  0.040451  1
  F  F9  1  0.770671  0.040451  0.009719  1
