# generated using pymatgen
data_BaSi3SnO9
_symmetry_space_group_name_H-M   'P 1'
_cell_length_a   6.83229745
_cell_length_b   6.83229745
_cell_length_c   9.99143800
_cell_angle_alpha   90.00000000
_cell_angle_beta   90.00000000
_cell_angle_gamma   119.99999468
_symmetry_Int_Tables_number   1
_chemical_formula_structural   BaSi3SnO9
_chemical_formula_sum   'Ba2 Si6 Sn2 O18'
_cell_volume   403.91704812
_cell_formula_units_Z   2
loop_
 _symmetry_equiv_pos_site_id
 _symmetry_equiv_pos_as_xyz
  1  'x, y, z'
loop_
 _atom_site_type_symbol
 _atom_site_label
 _atom_site_symmetry_multiplicity
 _atom_site_fract_x
 _atom_site_fract_y
 _atom_site_fract_z
 _atom_site_occupancy
  Ba  Ba0  1  0.333333  0.666667  0.500000  1
  Ba  Ba1  1  0.333333  0.666667  0.000000  1
  Si  Si2  1  0.731231  0.115527  0.750000  1
  Si  Si3  1  0.884473  0.615704  0.750000  1
  Si  Si4  1  0.384296  0.268769  0.750000  1
  Si  Si5  1  0.384296  0.115527  0.250000  1
  Si  Si6  1  0.884473  0.268769  0.250000  1
  Si  Si7  1  0.731231  0.615704  0.250000  1
  Sn  Sn8  1  0.000000  0.000000  0.500000  1
  Sn  Sn9  1  0.000000  0.000000  0.000000  1
  O  O10  1  0.247502  0.257733  0.614289  1
  O  O11  1  0.742267  0.752498  0.385711  1
  O  O12  1  0.742267  0.989769  0.614289  1
  O  O13  1  0.010231  0.752498  0.614289  1
  O  O14  1  0.742267  0.989769  0.885711  1
  O  O15  1  0.010231  0.752498  0.885711  1
  O  O16  1  0.247502  0.257733  0.885711  1
  O  O17  1  0.010231  0.257733  0.114289  1
  O  O18  1  0.247502  0.989769  0.114289  1
  O  O19  1  0.247502  0.989769  0.385711  1
  O  O20  1  0.915764  0.526257  0.250000  1
  O  O21  1  0.610493  0.084236  0.250000  1
  O  O22  1  0.473743  0.389507  0.250000  1
  O  O23  1  0.473743  0.084236  0.750000  1
  O  O24  1  0.610493  0.526257  0.750000  1
  O  O25  1  0.915764  0.389507  0.750000  1
  O  O26  1  0.742267  0.752498  0.114289  1
  O  O27  1  0.010231  0.257733  0.385711  1
