# generated using pymatgen
data_Nb2O5
_symmetry_space_group_name_H-M   'P 1'
_cell_length_a   4.05615517
_cell_length_b   4.05615517
_cell_length_c   5.84511883
_cell_angle_alpha   68.58748970
_cell_angle_beta   68.58748970
_cell_angle_gamma   80.70473397
_symmetry_Int_Tables_number   1
_chemical_formula_structural   Nb2O5
_chemical_formula_sum   'Nb2 O5'
_cell_volume   83.30458764
_cell_formula_units_Z   1
loop_
 _symmetry_equiv_pos_site_id
 _symmetry_equiv_pos_as_xyz
  1  'x, y, z'
loop_
 _atom_site_type_symbol
 _atom_site_label
 _atom_site_symmetry_multiplicity
 _atom_site_fract_x
 _atom_site_fract_y
 _atom_site_fract_z
 _atom_site_occupancy
  Nb  Nb0  1  0.849698  0.770908  0.295059  1
  Nb  Nb1  1  0.229092  0.150302  0.704941  1
  O  O2  1  0.282860  0.717140  0.500000  1
  O  O3  1  0.637316  0.208934  0.353734  1
  O  O4  1  0.237886  0.115920  0.036049  1
  O  O5  1  0.884080  0.762114  0.963951  1
  O  O6  1  0.791066  0.362684  0.646266  1
