# generated using pymatgen
data_RbVN2
_symmetry_space_group_name_H-M   'P 1'
_cell_length_a   5.85770859
_cell_length_b   5.85770859
_cell_length_c   5.85770859
_cell_angle_alpha   120.18636770
_cell_angle_beta   120.18636770
_cell_angle_gamma   89.67750365
_symmetry_Int_Tables_number   1
_chemical_formula_structural   RbVN2
_chemical_formula_sum   'Rb2 V2 N4'
_cell_volume   141.72149489
_cell_formula_units_Z   2
loop_
 _symmetry_equiv_pos_site_id
 _symmetry_equiv_pos_as_xyz
  1  'x, y, z'
loop_
 _atom_site_type_symbol
 _atom_site_label
 _atom_site_symmetry_multiplicity
 _atom_site_fract_x
 _atom_site_fract_y
 _atom_site_fract_z
 _atom_site_occupancy
  Rb  Rb0  1  0.250000  0.750000  0.500000  1
  Rb  Rb1  1  0.500000  0.500000  0.000000  1
  V  V2  1  0.750000  0.250000  0.500000  1
  V  V3  1  0.000000  0.000000  0.000000  1
  N  N4  1  0.832066  0.125000  0.207066  1
  N  N5  1  0.917934  0.625000  0.792934  1
  N  N6  1  0.375000  0.167934  0.292934  1
  N  N7  1  0.875000  0.082066  0.707066  1
