# generated using pymatgen
data_KSi5N7
_symmetry_space_group_name_H-M   'P 1'
_cell_length_a   4.94101400
_cell_length_b   11.71353400
_cell_length_c   21.28156800
_cell_angle_alpha   90.00000000
_cell_angle_beta   90.00000000
_cell_angle_gamma   90.00000000
_symmetry_Int_Tables_number   1
_chemical_formula_structural   KSi5N7
_chemical_formula_sum   'K8 Si40 N56'
_cell_volume   1231.70768181
_cell_formula_units_Z   8
loop_
 _symmetry_equiv_pos_site_id
 _symmetry_equiv_pos_as_xyz
  1  'x, y, z'
loop_
 _atom_site_type_symbol
 _atom_site_label
 _atom_site_symmetry_multiplicity
 _atom_site_fract_x
 _atom_site_fract_y
 _atom_site_fract_z
 _atom_site_occupancy
  K  K0  1  0.439241  0.779392  0.988093  1
  K  K1  1  0.939241  0.220608  0.011907  1
  K  K2  1  0.939241  0.720608  0.488093  1
  K  K3  1  0.439241  0.279392  0.511907  1
  K  K4  1  0.444901  0.147544  0.801754  1
  K  K5  1  0.944901  0.852456  0.198246  1
  K  K6  1  0.944901  0.352456  0.301754  1
  K  K7  1  0.444901  0.647544  0.698246  1
  Si  Si8  1  0.734346  0.655924  0.848244  1
  Si  Si9  1  0.234346  0.344076  0.151756  1
  Si  Si10  1  0.234346  0.844076  0.348244  1
  Si  Si11  1  0.734346  0.155924  0.651756  1
  Si  Si12  1  0.229951  0.155077  0.651943  1
  Si  Si13  1  0.729951  0.844923  0.348057  1
  Si  Si14  1  0.729951  0.344923  0.151943  1
  Si  Si15  1  0.229951  0.655077  0.848057  1
  Si  Si16  1  0.967827  0.859265  0.777089  1
  Si  Si17  1  0.467827  0.140735  0.222911  1
  Si  Si18  1  0.467827  0.640735  0.277089  1
  Si  Si19  1  0.967827  0.359265  0.722911  1
  Si  Si20  1  0.468473  0.420089  0.800988  1
  Si  Si21  1  0.968473  0.579911  0.199012  1
  Si  Si22  1  0.968473  0.079911  0.300988  1
  Si  Si23  1  0.468473  0.920089  0.699012  1
  Si  Si24  1  0.459747  0.058559  0.967435  1
  Si  Si25  1  0.959747  0.941441  0.032565  1
  Si  Si26  1  0.959747  0.441441  0.467435  1
  Si  Si27  1  0.459747  0.558559  0.532565  1
  Si  Si28  1  0.462564  0.505919  0.043686  1
  Si  Si29  1  0.962564  0.494081  0.956314  1
  Si  Si30  1  0.962564  0.994081  0.543686  1
  Si  Si31  1  0.462564  0.005919  0.456314  1
  Si  Si32  1  0.451515  0.696226  0.138667  1
  Si  Si33  1  0.951515  0.303774  0.861333  1
  Si  Si34  1  0.951515  0.803774  0.638667  1
  Si  Si35  1  0.451515  0.196226  0.361333  1
  Si  Si36  1  0.949932  0.666493  0.064932  1
  Si  Si37  1  0.449932  0.333507  0.935068  1
  Si  Si38  1  0.449932  0.833507  0.564932  1
  Si  Si39  1  0.949932  0.166493  0.435068  1
  Si  Si40  1  0.458849  0.968630  0.108710  1
  Si  Si41  1  0.958849  0.031370  0.891290  1
  Si  Si42  1  0.958849  0.531370  0.608710  1
  Si  Si43  1  0.458849  0.468630  0.391290  1
  Si  Si44  1  0.469944  0.898816  0.847175  1
  Si  Si45  1  0.969944  0.101184  0.152825  1
  Si  Si46  1  0.969944  0.601184  0.347175  1
  Si  Si47  1  0.469944  0.398816  0.652825  1
  N  N48  1  0.479178  0.754055  0.868110  1
  N  N49  1  0.979178  0.245945  0.131890  1
  N  N50  1  0.979178  0.745945  0.368110  1
  N  N51  1  0.479178  0.254055  0.631890  1
  N  N52  1  0.982480  0.714973  0.799859  1
  N  N53  1  0.482480  0.285027  0.200141  1
  N  N54  1  0.482480  0.785027  0.299859  1
  N  N55  1  0.982480  0.214973  0.700141  1
  N  N56  1  0.299435  0.994391  0.034595  1
  N  N57  1  0.799435  0.005609  0.965405  1
  N  N58  1  0.799435  0.505609  0.534595  1
  N  N59  1  0.299435  0.494391  0.465405  1
  N  N60  1  0.484878  0.399294  0.101856  1
  N  N61  1  0.984878  0.600706  0.898144  1
  N  N62  1  0.984878  0.100706  0.601856  1
  N  N63  1  0.484878  0.899294  0.398144  1
  N  N64  1  0.803580  0.937105  0.835383  1
  N  N65  1  0.303580  0.062895  0.164617  1
  N  N66  1  0.303580  0.562895  0.335383  1
  N  N67  1  0.803580  0.437105  0.664617  1
  N  N68  1  0.795632  0.366083  0.793451  1
  N  N69  1  0.295632  0.633917  0.206549  1
  N  N70  1  0.295632  0.133917  0.293451  1
  N  N71  1  0.795632  0.866083  0.706549  1
  N  N72  1  0.292373  0.349026  0.859652  1
  N  N73  1  0.792373  0.650974  0.140348  1
  N  N74  1  0.792373  0.150974  0.359652  1
  N  N75  1  0.292373  0.849026  0.640348  1
  N  N76  1  0.483684  0.063484  0.678731  1
  N  N77  1  0.983684  0.936516  0.321269  1
  N  N78  1  0.983684  0.436516  0.178731  1
  N  N79  1  0.483684  0.563484  0.821269  1
  N  N80  1  0.787214  0.553355  0.020193  1
  N  N81  1  0.287214  0.446645  0.979807  1
  N  N82  1  0.287214  0.946645  0.520193  1
  N  N83  1  0.787214  0.053355  0.479807  1
  N  N84  1  0.789196  0.378669  0.924166  1
  N  N85  1  0.289196  0.621331  0.075834  1
  N  N86  1  0.289196  0.121331  0.424166  1
  N  N87  1  0.789196  0.878669  0.575834  1
  N  N88  1  0.302530  0.986705  0.900346  1
  N  N89  1  0.802530  0.013295  0.099654  1
  N  N90  1  0.802530  0.513295  0.400346  1
  N  N91  1  0.302530  0.486705  0.599654  1
  N  N92  1  0.421361  0.836384  0.135474  1
  N  N93  1  0.921361  0.163616  0.864526  1
  N  N94  1  0.921361  0.663616  0.635474  1
  N  N95  1  0.421361  0.336384  0.364526  1
  N  N96  1  0.927639  0.798535  0.035372  1
  N  N97  1  0.427639  0.201465  0.964628  1
  N  N98  1  0.427639  0.701465  0.535372  1
  N  N99  1  0.927639  0.298535  0.464628  1
  N  N100  1  0.303259  0.905012  0.772400  1
  N  N101  1  0.803259  0.094988  0.227600  1
  N  N102  1  0.803259  0.594988  0.272400  1
  N  N103  1  0.303259  0.405012  0.727600  1
