# generated using pymatgen
data_Cd4SiSe6
_symmetry_space_group_name_H-M   'P 1'
_cell_length_a   7.57601042
_cell_length_b   7.57601042
_cell_length_c   13.13906206
_cell_angle_alpha   72.52363319
_cell_angle_beta   72.52363319
_cell_angle_gamma   59.69261386
_symmetry_Int_Tables_number   1
_chemical_formula_structural   Cd4SiSe6
_chemical_formula_sum   'Cd8 Si2 Se12'
_cell_volume   610.79249767
_cell_formula_units_Z   2
loop_
 _symmetry_equiv_pos_site_id
 _symmetry_equiv_pos_as_xyz
  1  'x, y, z'
loop_
 _atom_site_type_symbol
 _atom_site_label
 _atom_site_symmetry_multiplicity
 _atom_site_fract_x
 _atom_site_fract_y
 _atom_site_fract_z
 _atom_site_occupancy
  Cd  Cd0  1  0.323064  0.726174  0.690833  1
  Cd  Cd1  1  0.726174  0.323064  0.190833  1
  Cd  Cd2  1  0.088154  0.227655  0.847221  1
  Cd  Cd3  1  0.227655  0.088154  0.347221  1
  Cd  Cd4  1  0.231829  0.444743  0.041838  1
  Cd  Cd5  1  0.444743  0.231829  0.541838  1
  Cd  Cd6  1  0.710821  0.920326  0.853924  1
  Cd  Cd7  1  0.920326  0.710821  0.353924  1
  Si  Si8  1  0.859675  0.318107  0.604235  1
  Si  Si9  1  0.318107  0.859675  0.104235  1
  Se  Se10  1  0.975990  0.442451  0.233829  1
  Se  Se11  1  0.442451  0.975990  0.733829  1
  Se  Se12  1  0.033080  0.001482  0.553273  1
  Se  Se13  1  0.001482  0.033080  0.053273  1
  Se  Se14  1  0.516974  0.030114  0.053010  1
  Se  Se15  1  0.030114  0.516974  0.553010  1
  Se  Se16  1  0.745928  0.286662  0.788222  1
  Se  Se17  1  0.286662  0.745928  0.288222  1
  Se  Se18  1  0.084565  0.584327  0.855131  1
  Se  Se19  1  0.584327  0.084565  0.355131  1
  Se  Se20  1  0.569142  0.519139  0.524284  1
  Se  Se21  1  0.519139  0.569142  0.024284  1
