# generated using pymatgen
data_Mg2MnN3
_symmetry_space_group_name_H-M   'P 1'
_cell_length_a   5.77178834
_cell_length_b   5.77178834
_cell_length_c   4.96584300
_cell_angle_alpha   90.00000000
_cell_angle_beta   90.00000000
_cell_angle_gamma   119.51975924
_symmetry_Int_Tables_number   1
_chemical_formula_structural   Mg2MnN3
_chemical_formula_sum   'Mg4 Mn2 N6'
_cell_volume   143.95467804
_cell_formula_units_Z   2
loop_
 _symmetry_equiv_pos_site_id
 _symmetry_equiv_pos_as_xyz
  1  'x, y, z'
loop_
 _atom_site_type_symbol
 _atom_site_label
 _atom_site_symmetry_multiplicity
 _atom_site_fract_x
 _atom_site_fract_y
 _atom_site_fract_z
 _atom_site_occupancy
  Mg  Mg0  1  0.664200  0.990769  0.529317  1
  Mg  Mg1  1  0.990769  0.664200  0.529317  1
  Mg  Mg2  1  0.335800  0.009231  0.029317  1
  Mg  Mg3  1  0.009231  0.335800  0.029317  1
  Mn  Mn4  1  0.331979  0.331979  0.519719  1
  Mn  Mn5  1  0.668021  0.668021  0.019719  1
  N  N6  1  0.670033  0.966060  0.098185  1
  N  N7  1  0.966060  0.670033  0.098185  1
  N  N8  1  0.329967  0.033940  0.598185  1
  N  N9  1  0.033940  0.329967  0.598185  1
  N  N10  1  0.375521  0.375521  0.153278  1
  N  N11  1  0.624479  0.624479  0.653278  1
