# generated using pymatgen
data_KGaS2
_symmetry_space_group_name_H-M   'P 1'
_cell_length_a   7.47782759
_cell_length_b   7.47782759
_cell_length_c   15.02263631
_cell_angle_alpha   82.83977858
_cell_angle_beta   82.83977858
_cell_angle_gamma   89.97786240
_symmetry_Int_Tables_number   1
_chemical_formula_structural   KGaS2
_chemical_formula_sum   'K8 Ga8 S16'
_cell_volume   826.88546248
_cell_formula_units_Z   8
loop_
 _symmetry_equiv_pos_site_id
 _symmetry_equiv_pos_as_xyz
  1  'x, y, z'
loop_
 _atom_site_type_symbol
 _atom_site_label
 _atom_site_symmetry_multiplicity
 _atom_site_fract_x
 _atom_site_fract_y
 _atom_site_fract_z
 _atom_site_occupancy
  K  K0  1  0.653531  0.777034  0.888988  1
  K  K1  1  0.222966  0.346469  0.611012  1
  K  K2  1  0.151709  0.774468  0.891136  1
  K  K3  1  0.774468  0.151709  0.391136  1
  K  K4  1  0.225532  0.848291  0.608864  1
  K  K5  1  0.848291  0.225532  0.108864  1
  K  K6  1  0.777034  0.653531  0.388988  1
  K  K7  1  0.346469  0.222966  0.111012  1
  Ga  Ga8  1  0.912117  0.289209  0.836327  1
  Ga  Ga9  1  0.289209  0.912117  0.336327  1
  Ga  Ga10  1  0.290326  0.417544  0.336724  1
  Ga  Ga11  1  0.417544  0.290326  0.836724  1
  Ga  Ga12  1  0.709674  0.582456  0.663276  1
  Ga  Ga13  1  0.582456  0.709674  0.163276  1
  Ga  Ga14  1  0.087883  0.710791  0.163673  1
  Ga  Ga15  1  0.710791  0.087883  0.663673  1
  S  S16  1  0.432051  0.055508  0.750554  1
  S  S17  1  0.055508  0.432051  0.250554  1
  S  S18  1  0.642043  0.265033  0.931304  1
  S  S19  1  0.265033  0.642043  0.431304  1
  S  S20  1  0.944492  0.567949  0.749446  1
  S  S21  1  0.567949  0.944492  0.249446  1
  S  S22  1  0.267874  0.141095  0.427716  1
  S  S23  1  0.141095  0.267874  0.927716  1
  S  S24  1  0.568034  0.431966  0.250000  1
  S  S25  1  0.431966  0.568034  0.750000  1
  S  S26  1  0.734967  0.357957  0.568696  1
  S  S27  1  0.943214  0.056786  0.750000  1
  S  S28  1  0.858905  0.732126  0.072284  1
  S  S29  1  0.732126  0.858905  0.572284  1
  S  S30  1  0.056786  0.943214  0.250000  1
  S  S31  1  0.357957  0.734967  0.068696  1
