# generated using pymatgen
data_LiAlSiO4
_symmetry_space_group_name_H-M   'P 1'
_cell_length_a   8.44578169
_cell_length_b   8.44578169
_cell_length_c   8.44578143
_cell_angle_alpha   107.84540110
_cell_angle_beta   107.84540110
_cell_angle_gamma   107.84539626
_symmetry_Int_Tables_number   1
_chemical_formula_structural   LiAlSiO4
_chemical_formula_sum   'Li6 Al6 Si6 O24'
_cell_volume   489.69334032
_cell_formula_units_Z   6
loop_
 _symmetry_equiv_pos_site_id
 _symmetry_equiv_pos_as_xyz
  1  'x, y, z'
loop_
 _atom_site_type_symbol
 _atom_site_label
 _atom_site_symmetry_multiplicity
 _atom_site_fract_x
 _atom_site_fract_y
 _atom_site_fract_z
 _atom_site_occupancy
  Li  Li0  1  0.940847  0.766811  0.544623  1
  Li  Li1  1  0.544623  0.940847  0.766811  1
  Li  Li2  1  0.766811  0.544623  0.940847  1
  Li  Li3  1  0.057842  0.227729  0.457364  1
  Li  Li4  1  0.457364  0.057842  0.227729  1
  Li  Li5  1  0.227729  0.457364  0.057842  1
  Al  Al6  1  0.789857  0.384740  0.572566  1
  Al  Al7  1  0.867888  0.278862  0.100676  1
  Al  Al8  1  0.384740  0.572566  0.789857  1
  Al  Al9  1  0.572566  0.789857  0.384740  1
  Al  Al10  1  0.100676  0.867888  0.278862  1
  Al  Al11  1  0.278862  0.100676  0.867888  1
  Si  Si12  1  0.426182  0.209141  0.615002  1
  Si  Si13  1  0.615002  0.426182  0.209141  1
  Si  Si14  1  0.209141  0.615002  0.426182  1
  Si  Si15  1  0.129246  0.720090  0.899831  1
  Si  Si16  1  0.720090  0.899831  0.129246  1
  Si  Si17  1  0.899831  0.129246  0.720090  1
  O  O18  1  0.268231  0.934660  0.956821  1
  O  O19  1  0.596480  0.907877  0.246476  1
  O  O20  1  0.907877  0.246476  0.596480  1
  O  O21  1  0.246476  0.596480  0.907877  1
  O  O22  1  0.411714  0.094751  0.740677  1
  O  O23  1  0.094751  0.740677  0.411714  1
  O  O24  1  0.740677  0.411714  0.094751  1
  O  O25  1  0.956821  0.268231  0.934660  1
  O  O26  1  0.316411  0.337767  0.649996  1
  O  O27  1  0.934660  0.956821  0.268231  1
  O  O28  1  0.041015  0.720699  0.048463  1
  O  O29  1  0.720699  0.048463  0.041015  1
  O  O30  1  0.680768  0.642164  0.347403  1
  O  O31  1  0.347403  0.680768  0.642164  1
  O  O32  1  0.642164  0.347403  0.680768  1
  O  O33  1  0.393315  0.324599  0.060449  1
  O  O34  1  0.649996  0.316411  0.337767  1
  O  O35  1  0.337767  0.649996  0.316411  1
  O  O36  1  0.690807  0.955135  0.621883  1
  O  O37  1  0.060449  0.393315  0.324599  1
  O  O38  1  0.324599  0.060449  0.393315  1
  O  O39  1  0.621883  0.690807  0.955135  1
  O  O40  1  0.955135  0.621883  0.690807  1
  O  O41  1  0.048463  0.041015  0.720699  1
