# generated using pymatgen
data_RbZnPO4
_symmetry_space_group_name_H-M   'P 1'
_cell_length_a   5.49863100
_cell_length_b   9.00297800
_cell_length_c   9.09152541
_cell_angle_alpha   89.81496977
_cell_angle_beta   90.00000000
_cell_angle_gamma   90.00000000
_symmetry_Int_Tables_number   1
_chemical_formula_structural   RbZnPO4
_chemical_formula_sum   'Rb4 Zn4 P4 O16'
_cell_volume   450.06501715
_cell_formula_units_Z   4
loop_
 _symmetry_equiv_pos_site_id
 _symmetry_equiv_pos_as_xyz
  1  'x, y, z'
loop_
 _atom_site_type_symbol
 _atom_site_label
 _atom_site_symmetry_multiplicity
 _atom_site_fract_x
 _atom_site_fract_y
 _atom_site_fract_z
 _atom_site_occupancy
  Rb  Rb0  1  0.781788  0.501754  0.687227  1
  Rb  Rb1  1  0.281788  0.498246  0.312773  1
  Rb  Rb2  1  0.258192  0.991283  0.198383  1
  Rb  Rb3  1  0.758192  0.008717  0.801617  1
  Zn  Zn4  1  0.791265  0.671035  0.091869  1
  Zn  Zn5  1  0.291265  0.328965  0.908131  1
  Zn  Zn6  1  0.753186  0.174863  0.423129  1
  Zn  Zn7  1  0.253186  0.825137  0.576871  1
  P  P8  1  0.788740  0.307899  0.097664  1
  P  P9  1  0.288740  0.692101  0.902336  1
  P  P10  1  0.256842  0.194176  0.577578  1
  P  P11  1  0.756842  0.805824  0.422422  1
  O  O12  1  0.211073  0.192439  0.746354  1
  O  O13  1  0.711073  0.807561  0.253646  1
  O  O14  1  0.045844  0.278011  0.497434  1
  O  O15  1  0.545844  0.721989  0.502566  1
  O  O16  1  0.498444  0.277558  0.540926  1
  O  O17  1  0.998444  0.722442  0.459074  1
  O  O18  1  0.273470  0.034024  0.518892  1
  O  O19  1  0.773470  0.965976  0.481108  1
  O  O20  1  0.640420  0.291271  0.952400  1
  O  O21  1  0.140420  0.708729  0.047600  1
  O  O22  1  0.062662  0.274267  0.066902  1
  O  O23  1  0.562662  0.725733  0.933098  1
  O  O24  1  0.258195  0.534211  0.835976  1
  O  O25  1  0.758195  0.465789  0.164024  1
  O  O26  1  0.192779  0.808231  0.789262  1
  O  O27  1  0.692779  0.191769  0.210738  1
