# generated using pymatgen
data_Rb2V(PO4)2
_symmetry_space_group_name_H-M   'P 1'
_cell_length_a   7.18338100
_cell_length_b   9.22428800
_cell_length_c   13.27057800
_cell_angle_alpha   90.00000000
_cell_angle_beta   90.00000000
_cell_angle_gamma   90.00000000
_symmetry_Int_Tables_number   1
_chemical_formula_structural   Rb2V(PO4)2
_chemical_formula_sum   'Rb8 V4 P8 O32'
_cell_volume   879.32940153
_cell_formula_units_Z   4
loop_
 _symmetry_equiv_pos_site_id
 _symmetry_equiv_pos_as_xyz
  1  'x, y, z'
loop_
 _atom_site_type_symbol
 _atom_site_label
 _atom_site_symmetry_multiplicity
 _atom_site_fract_x
 _atom_site_fract_y
 _atom_site_fract_z
 _atom_site_occupancy
  Rb  Rb0  1  0.767036  0.389304  0.589407  1
  Rb  Rb1  1  0.267036  0.110696  0.410593  1
  Rb  Rb2  1  0.232964  0.889304  0.910593  1
  Rb  Rb3  1  0.732964  0.610696  0.089407  1
  Rb  Rb4  1  0.728886  0.169903  0.911174  1
  Rb  Rb5  1  0.228886  0.330097  0.088826  1
  Rb  Rb6  1  0.271114  0.669903  0.588826  1
  Rb  Rb7  1  0.771114  0.830097  0.411174  1
  V  V8  1  0.744995  0.245495  0.305496  1
  V  V9  1  0.244995  0.254505  0.694504  1
  V  V10  1  0.255005  0.745495  0.194504  1
  V  V11  1  0.755005  0.754505  0.805496  1
  P  P12  1  0.584994  0.007167  0.664948  1
  P  P13  1  0.084994  0.492833  0.335052  1
  P  P14  1  0.415006  0.507167  0.835052  1
  P  P15  1  0.915006  0.992833  0.164948  1
  P  P16  1  0.489372  0.528534  0.346702  1
  P  P17  1  0.989372  0.971466  0.653298  1
  P  P18  1  0.510628  0.028534  0.153298  1
  P  P19  1  0.010628  0.471466  0.846702  1
  O  O20  1  0.527724  0.921702  0.573828  1
  O  O21  1  0.027724  0.578298  0.426172  1
  O  O22  1  0.472276  0.421702  0.926172  1
  O  O23  1  0.972276  0.078298  0.073828  1
  O  O24  1  0.590343  0.919735  0.765015  1
  O  O25  1  0.090343  0.580265  0.234985  1
  O  O26  1  0.409657  0.419735  0.734985  1
  O  O27  1  0.909657  0.080265  0.265015  1
  O  O28  1  0.299122  0.431513  0.348631  1
  O  O29  1  0.799122  0.068487  0.651369  1
  O  O30  1  0.700878  0.931513  0.151369  1
  O  O31  1  0.200878  0.568487  0.848631  1
  O  O32  1  0.483973  0.152198  0.683818  1
  O  O33  1  0.983973  0.347802  0.316182  1
  O  O34  1  0.516027  0.652198  0.816182  1
  O  O35  1  0.016027  0.847802  0.183818  1
  O  O36  1  0.557423  0.171517  0.210422  1
  O  O37  1  0.057423  0.328483  0.789578  1
  O  O38  1  0.442577  0.671517  0.289578  1
  O  O39  1  0.942577  0.828483  0.710422  1
  O  O40  1  0.874236  0.560730  0.781383  1
  O  O41  1  0.374236  0.939270  0.218617  1
  O  O42  1  0.125764  0.060730  0.718617  1
  O  O43  1  0.625764  0.439270  0.281383  1
  O  O44  1  0.825478  0.801219  0.917157  1
  O  O45  1  0.325478  0.698781  0.082843  1
  O  O46  1  0.174522  0.301219  0.582843  1
  O  O47  1  0.674522  0.198781  0.417157  1
  O  O48  1  0.949379  0.441974  0.952987  1
  O  O49  1  0.449379  0.058026  0.047013  1
  O  O50  1  0.050621  0.941974  0.547013  1
  O  O51  1  0.550621  0.558026  0.452987  1
