# generated using pymatgen
data_BeSiP2
_symmetry_space_group_name_H-M   'P 1'
_cell_length_a   6.25961500
_cell_length_b   6.25961500
_cell_length_c   6.25961500
_cell_angle_alpha   131.52774428
_cell_angle_beta   131.52774428
_cell_angle_gamma   70.97593397
_symmetry_Int_Tables_number   1
_chemical_formula_structural   BeSiP2
_chemical_formula_sum   'Be2 Si2 P4'
_cell_volume   134.60965687
_cell_formula_units_Z   2
loop_
 _symmetry_equiv_pos_site_id
 _symmetry_equiv_pos_as_xyz
  1  'x, y, z'
loop_
 _atom_site_type_symbol
 _atom_site_label
 _atom_site_symmetry_multiplicity
 _atom_site_fract_x
 _atom_site_fract_y
 _atom_site_fract_z
 _atom_site_occupancy
  Be  Be0  1  0.000000  0.000000  0.000000  1
  Be  Be1  1  0.750000  0.250000  0.500000  1
  Si  Si2  1  0.500000  0.500000  0.000000  1
  Si  Si3  1  0.250000  0.750000  0.500000  1
  P  P4  1  0.640025  0.125000  0.015025  1
  P  P5  1  0.875000  0.890025  0.515025  1
  P  P6  1  0.375000  0.359975  0.484975  1
  P  P7  1  0.109975  0.625000  0.984975  1
