# generated using pymatgen
data_SrS3
_symmetry_space_group_name_H-M   'P 1'
_cell_length_a   5.43903323
_cell_length_b   5.43903323
_cell_length_c   7.00896300
_cell_angle_alpha   90.00000000
_cell_angle_beta   90.00000000
_cell_angle_gamma   95.99145501
_symmetry_Int_Tables_number   1
_chemical_formula_structural   SrS3
_chemical_formula_sum   'Sr2 S6'
_cell_volume   206.21409343
_cell_formula_units_Z   2
loop_
 _symmetry_equiv_pos_site_id
 _symmetry_equiv_pos_as_xyz
  1  'x, y, z'
loop_
 _atom_site_type_symbol
 _atom_site_label
 _atom_site_symmetry_multiplicity
 _atom_site_fract_x
 _atom_site_fract_y
 _atom_site_fract_z
 _atom_site_occupancy
  Sr  Sr0  1  0.997425  0.997425  0.000000  1
  Sr  Sr1  1  0.497425  0.497425  0.500000  1
  S  S2  1  0.466833  0.466833  0.000000  1
  S  S3  1  0.966833  0.966833  0.500000  1
  S  S4  1  0.804337  0.475305  0.142419  1
  S  S5  1  0.475305  0.804337  0.857581  1
  S  S6  1  0.304337  0.975305  0.357581  1
  S  S7  1  0.975305  0.304337  0.642419  1
