# generated using pymatgen
data_CsPr(PO3)4
_symmetry_space_group_name_H-M   'P 1'
_cell_length_a   9.35403400
_cell_length_b   7.26237400
_cell_length_c   8.93772281
_cell_angle_alpha   80.50585456
_cell_angle_beta   90.00000000
_cell_angle_gamma   90.00000000
_symmetry_Int_Tables_number   1
_chemical_formula_structural   CsPr(PO3)4
_chemical_formula_sum   'Cs2 Pr2 P8 O24'
_cell_volume   598.84517247
_cell_formula_units_Z   2
loop_
 _symmetry_equiv_pos_site_id
 _symmetry_equiv_pos_as_xyz
  1  'x, y, z'
loop_
 _atom_site_type_symbol
 _atom_site_label
 _atom_site_symmetry_multiplicity
 _atom_site_fract_x
 _atom_site_fract_y
 _atom_site_fract_z
 _atom_site_occupancy
  Cs  Cs0  1  0.330920  0.330124  0.172663  1
  Cs  Cs1  1  0.830920  0.669876  0.827337  1
  Pr  Pr2  1  0.496135  0.200343  0.697762  1
  Pr  Pr3  1  0.996135  0.799657  0.302238  1
  P  P4  1  0.869907  0.354972  0.543062  1
  P  P5  1  0.369907  0.645028  0.456938  1
  P  P6  1  0.605429  0.938499  0.375539  1
  P  P7  1  0.105429  0.061501  0.624461  1
  P  P8  1  0.422486  0.692320  0.773265  1
  P  P9  1  0.922486  0.307680  0.226735  1
  P  P10  1  0.220950  0.915822  0.927761  1
  P  P11  1  0.720950  0.084178  0.072239  1
  O  O12  1  0.248586  0.152144  0.594344  1
  O  O13  1  0.748586  0.847856  0.405656  1
  O  O14  1  0.482343  0.787134  0.362217  1
  O  O15  1  0.982343  0.212866  0.637783  1
  O  O16  1  0.338950  0.725236  0.612085  1
  O  O17  1  0.838950  0.274764  0.387915  1
  O  O18  1  0.441029  0.457991  0.491469  1
  O  O19  1  0.941029  0.542009  0.508531  1
  O  O20  1  0.465747  0.491146  0.816582  1
  O  O21  1  0.965747  0.508854  0.183418  1
  O  O22  1  0.097064  0.953739  0.799649  1
  O  O23  1  0.597064  0.046261  0.200351  1
  O  O24  1  0.826553  0.926219  0.091623  1
  O  O25  1  0.326553  0.073781  0.908377  1
  O  O26  1  0.148055  0.858327  0.075793  1
  O  O27  1  0.648055  0.141673  0.924207  1
  O  O28  1  0.551271  0.073229  0.472102  1
  O  O29  1  0.051271  0.926771  0.527898  1
  O  O30  1  0.793986  0.275164  0.112756  1
  O  O31  1  0.293986  0.724836  0.887244  1
  O  O32  1  0.234482  0.662227  0.366828  1
  O  O33  1  0.734482  0.337773  0.633172  1
  O  O34  1  0.032869  0.156924  0.230398  1
  O  O35  1  0.532869  0.843076  0.769602  1
