# generated using pymatgen
data_Rb3W2N5
_symmetry_space_group_name_H-M   'P 1'
_cell_length_a   10.68722660
_cell_length_b   10.68722660
_cell_length_c   10.68722660
_cell_angle_alpha   102.17738224
_cell_angle_beta   102.17738224
_cell_angle_gamma   125.31857057
_symmetry_Int_Tables_number   1
_chemical_formula_structural   Rb3W2N5
_chemical_formula_sum   'Rb12 W8 N20'
_cell_volume   884.73669535
_cell_formula_units_Z   4
loop_
 _symmetry_equiv_pos_site_id
 _symmetry_equiv_pos_as_xyz
  1  'x, y, z'
loop_
 _atom_site_type_symbol
 _atom_site_label
 _atom_site_symmetry_multiplicity
 _atom_site_fract_x
 _atom_site_fract_y
 _atom_site_fract_z
 _atom_site_occupancy
  Rb  Rb0  1  0.852342  0.552848  0.877713  1
  Rb  Rb1  1  0.675135  0.974629  0.122287  1
  Rb  Rb2  1  0.802848  0.425135  0.200506  1
  Rb  Rb3  1  0.224629  0.602342  0.799494  1
  Rb  Rb4  1  0.516657  0.698101  0.351321  1
  Rb  Rb5  1  0.346780  0.165336  0.648679  1
  Rb  Rb6  1  0.948101  0.096780  0.681444  1
  Rb  Rb7  1  0.415336  0.266657  0.318556  1
  Rb  Rb8  1  0.962666  0.962666  0.000000  1
  Rb  Rb9  1  0.212666  0.712666  0.500000  1
  Rb  Rb10  1  0.730836  0.230836  0.500000  1
  Rb  Rb11  1  0.480836  0.480836  0.000000  1
  W  W12  1  0.625978  0.058955  0.804654  1
  W  W13  1  0.254301  0.821323  0.195346  1
  W  W14  1  0.308955  0.004301  0.932977  1
  W  W15  1  0.071323  0.375978  0.067023  1
  W  W16  1  0.935702  0.757827  0.627281  1
  W  W17  1  0.130546  0.308421  0.372719  1
  W  W18  1  0.007827  0.880546  0.322125  1
  W  W19  1  0.558421  0.685702  0.677875  1
  N  N20  1  0.633844  0.192303  0.725580  1
  N  N21  1  0.466723  0.908264  0.274420  1
  N  N22  1  0.442303  0.216723  0.058459  1
  N  N23  1  0.158264  0.383844  0.941541  1
  N  N24  1  0.844928  0.723374  0.151209  1
  N  N25  1  0.572165  0.693719  0.848791  1
  N  N26  1  0.973374  0.322165  0.378446  1
  N  N27  1  0.943719  0.594928  0.621554  1
  N  N28  1  0.833362  0.189270  0.967491  1
  N  N29  1  0.221779  0.865871  0.032509  1
  N  N30  1  0.439270  0.971779  0.855908  1
  N  N31  1  0.115871  0.583362  0.144092  1
  N  N32  1  0.950248  0.801696  0.462904  1
  N  N33  1  0.338792  0.487344  0.537096  1
  N  N34  1  0.051696  0.088792  0.351448  1
  N  N35  1  0.737344  0.700248  0.648552  1
  N  N36  1  0.128448  0.964486  0.788618  1
  N  N37  1  0.175868  0.339831  0.211382  1
  N  N38  1  0.214486  0.925868  0.336038  1
  N  N39  1  0.589831  0.878448  0.663962  1
