# generated using pymatgen
data_Al2Se3
_symmetry_space_group_name_H-M   'P 1'
_cell_length_a   6.89017909
_cell_length_b   6.89017909
_cell_length_c   7.43510623
_cell_angle_alpha   63.43419412
_cell_angle_beta   63.43419412
_cell_angle_gamma   59.58394773
_symmetry_Int_Tables_number   1
_chemical_formula_structural   Al2Se3
_chemical_formula_sum   'Al4 Se6'
_cell_volume   260.86635795
_cell_formula_units_Z   2
loop_
 _symmetry_equiv_pos_site_id
 _symmetry_equiv_pos_as_xyz
  1  'x, y, z'
loop_
 _atom_site_type_symbol
 _atom_site_label
 _atom_site_symmetry_multiplicity
 _atom_site_fract_x
 _atom_site_fract_y
 _atom_site_fract_z
 _atom_site_occupancy
  Al  Al0  1  0.637738  0.444740  0.870590  1
  Al  Al1  1  0.444740  0.637738  0.370590  1
  Al  Al2  1  0.264797  0.135980  0.883452  1
  Al  Al3  1  0.135980  0.264797  0.383452  1
  Se  Se4  1  0.908975  0.087976  0.013288  1
  Se  Se5  1  0.087976  0.908975  0.513288  1
  Se  Se6  1  0.585178  0.758160  0.985097  1
  Se  Se7  1  0.758160  0.585178  0.485097  1
  Se  Se8  1  0.248118  0.428138  0.997573  1
  Se  Se9  1  0.428138  0.248118  0.497573  1
