# generated using pymatgen
data_YCr(WO4)2
_symmetry_space_group_name_H-M   'P 1'
_cell_length_a   5.13184004
_cell_length_b   10.95564426
_cell_length_c   6.11020334
_cell_angle_alpha   81.35368599
_cell_angle_beta   69.08711774
_cell_angle_gamma   81.04074061
_symmetry_Int_Tables_number   1
_chemical_formula_structural   YCr(WO4)2
_chemical_formula_sum   'Y2 Cr2 W4 O16'
_cell_volume   315.31051630
_cell_formula_units_Z   2
loop_
 _symmetry_equiv_pos_site_id
 _symmetry_equiv_pos_as_xyz
  1  'x, y, z'
loop_
 _atom_site_type_symbol
 _atom_site_label
 _atom_site_symmetry_multiplicity
 _atom_site_fract_x
 _atom_site_fract_y
 _atom_site_fract_z
 _atom_site_occupancy
  Y  Y0  1  0.512315  0.352515  0.752641  1
  Y  Y1  1  0.512429  0.852572  0.252616  1
  Cr  Cr2  1  0.032512  0.611630  0.486299  1
  Cr  Cr3  1  0.032425  0.111550  0.986444  1
  W  W4  1  0.294882  0.697684  0.887517  1
  W  W5  1  0.770518  0.529931  0.089705  1
  W  W6  1  0.294754  0.197696  0.387604  1
  W  W7  1  0.770431  0.029930  0.589807  1
  O  O8  1  0.301862  0.346728  0.488171  1
  O  O9  1  0.301971  0.846675  0.988225  1
  O  O10  1  0.262308  0.231616  0.070037  1
  O  O11  1  0.262345  0.731608  0.569953  1
  O  O12  1  0.378103  0.103533  0.690964  1
  O  O13  1  0.378120  0.603474  0.190778  1
  O  O14  1  0.168313  0.019993  0.388675  1
  O  O15  1  0.168385  0.519996  0.888625  1
  O  O16  1  0.794533  0.487380  0.387530  1
  O  O17  1  0.794452  0.987326  0.887616  1
  O  O18  1  0.727865  0.384384  0.000970  1
  O  O19  1  0.727888  0.884404  0.500975  1
  O  O20  1  0.688813  0.118162  0.275468  1
  O  O21  1  0.689049  0.618168  0.775387  1
  O  O22  1  0.867769  0.205768  0.588877  1
  O  O23  1  0.867763  0.705777  0.088809  1
