# generated using pymatgen
data_Te2MoWSeS
_symmetry_space_group_name_H-M   'P 1'
_cell_length_a   3.39384253
_cell_length_b   3.39384253
_cell_length_c   38.80844100
_cell_angle_alpha   90.00000000
_cell_angle_beta   90.00000000
_cell_angle_gamma   120.00001032
_symmetry_Int_Tables_number   1
_chemical_formula_structural   Te2MoWSeS
_chemical_formula_sum   'Te4 Mo2 W2 Se2 S2'
_cell_volume   387.11514162
_cell_formula_units_Z   2
loop_
 _symmetry_equiv_pos_site_id
 _symmetry_equiv_pos_as_xyz
  1  'x, y, z'
loop_
 _atom_site_type_symbol
 _atom_site_label
 _atom_site_symmetry_multiplicity
 _atom_site_fract_x
 _atom_site_fract_y
 _atom_site_fract_z
 _atom_site_occupancy
  Te  Te0  1  0.333333  0.666667  0.045604  1
  Te  Te1  1  0.333333  0.666667  0.421370  1
  Te  Te2  1  0.333333  0.666667  0.142224  1
  Te  Te3  1  0.333333  0.666667  0.518000  1
  Mo  Mo4  1  0.000000  0.000000  0.093900  1
  Mo  Mo5  1  0.000000  0.000000  0.469664  1
  W  W6  1  0.333333  0.666667  0.281789  1
  W  W7  1  0.333333  0.666667  0.657539  1
  Se  Se8  1  0.000000  0.000000  0.324506  1
  Se  Se9  1  0.000000  0.000000  0.239087  1
  S  S10  1  0.000000  0.000000  0.696389  1
  S  S11  1  0.000000  0.000000  0.618676  1
