# generated using pymatgen
data_Mg3WN4
_symmetry_space_group_name_H-M   'P 1'
_cell_length_a   15.98914243
_cell_length_b   27.69780936
_cell_length_c   9.02866248
_cell_angle_alpha   90.00000000
_cell_angle_beta   90.00565856
_cell_angle_gamma   90.00000000
_symmetry_Int_Tables_number   1
_chemical_formula_structural   Mg3WN4
_chemical_formula_sum   'Mg108 W36 N144'
_cell_volume   3998.47153812
_cell_formula_units_Z   36
loop_
 _symmetry_equiv_pos_site_id
 _symmetry_equiv_pos_as_xyz
  1  'x, y, z'
loop_
 _atom_site_type_symbol
 _atom_site_label
 _atom_site_symmetry_multiplicity
 _atom_site_fract_x
 _atom_site_fract_y
 _atom_site_fract_z
 _atom_site_occupancy
  Mg  Mg0  1  0.999981  0.999960  0.754052  1
  Mg  Mg1  1  0.499981  0.500040  0.254052  1
  Mg  Mg2  1  0.999994  0.666648  0.861535  1
  Mg  Mg3  1  0.499994  0.833352  0.361535  1
  Mg  Mg4  1  0.500039  0.833353  0.828632  1
  Mg  Mg5  1  0.000039  0.666647  0.328632  1
  Mg  Mg6  1  0.673881  0.984051  0.885176  1
  Mg  Mg7  1  0.639132  0.671082  0.885139  1
  Mg  Mg8  1  0.186980  0.844899  0.885294  1
  Mg  Mg9  1  0.173881  0.515949  0.385176  1
  Mg  Mg10  1  0.139132  0.828918  0.385139  1
  Mg  Mg11  1  0.686980  0.655101  0.385294  1
  Mg  Mg12  1  0.839882  0.830419  0.585886  1
  Mg  Mg13  1  0.325803  0.664867  0.586472  1
  Mg  Mg14  1  0.834376  0.504704  0.586126  1
  Mg  Mg15  1  0.339882  0.669581  0.085886  1
  Mg  Mg16  1  0.825803  0.835133  0.086472  1
  Mg  Mg17  1  0.334375  0.995296  0.086126  1
  Mg  Mg18  1  0.802759  0.951660  0.565840  1
  Mg  Mg19  1  0.526101  0.622844  0.565433  1
  Mg  Mg20  1  0.171055  0.925546  0.565515  1
  Mg  Mg21  1  0.302759  0.548340  0.065840  1
  Mg  Mg22  1  0.026101  0.877156  0.065433  1
  Mg  Mg23  1  0.671055  0.574454  0.065515  1
  Mg  Mg24  1  0.854380  0.929180  0.895684  1
  Mg  Mg25  1  0.466585  0.608231  0.895339  1
  Mg  Mg26  1  0.178977  0.962579  0.895526  1
  Mg  Mg27  1  0.354380  0.570820  0.395684  1
  Mg  Mg28  1  0.966585  0.891769  0.395339  1
  Mg  Mg29  1  0.678977  0.537421  0.395526  1
  Mg  Mg30  1  0.009450  0.776304  0.692273  1
  Mg  Mg31  1  0.159784  0.607099  0.692383  1
  Mg  Mg32  1  0.830775  0.616556  0.692366  1
  Mg  Mg33  1  0.509450  0.723696  0.192273  1
  Mg  Mg34  1  0.659784  0.892901  0.192383  1
  Mg  Mg35  1  0.330775  0.883444  0.192366  1
  Mg  Mg36  1  0.526514  0.944636  0.670970  1
  Mg  Mg37  1  0.653706  0.764438  0.670948  1
  Mg  Mg38  1  0.319761  0.790986  0.670910  1
  Mg  Mg39  1  0.026514  0.555364  0.170970  1
  Mg  Mg40  1  0.153706  0.735562  0.170948  1
  Mg  Mg41  1  0.819761  0.709014  0.170910  1
  Mg  Mg42  1  0.659422  0.778874  0.981505  1
  Mg  Mg43  1  0.338591  0.780889  0.981474  1
  Mg  Mg44  1  0.502001  0.940281  0.981512  1
  Mg  Mg45  1  0.159422  0.721126  0.481505  1
  Mg  Mg46  1  0.838591  0.719111  0.481474  1
  Mg  Mg47  1  0.002001  0.559719  0.481512  1
  Mg  Mg48  1  0.995615  0.778456  0.991604  1
  Mg  Mg49  1  0.169955  0.612941  0.991762  1
  Mg  Mg50  1  0.834455  0.608552  0.991698  1
  Mg  Mg51  1  0.495615  0.721544  0.491604  1
  Mg  Mg52  1  0.669955  0.887059  0.491762  1
  Mg  Mg53  1  0.334455  0.891448  0.491698  1
  Mg  Mg54  1  0.499981  0.499960  0.754052  1
  Mg  Mg55  1  0.999981  0.000040  0.254052  1
  Mg  Mg56  1  0.499994  0.166648  0.861535  1
  Mg  Mg57  1  0.999994  0.333352  0.361535  1
  Mg  Mg58  1  0.000039  0.333352  0.828632  1
  Mg  Mg59  1  0.500039  0.166648  0.328632  1
  Mg  Mg60  1  0.173881  0.484051  0.885176  1
  Mg  Mg61  1  0.139132  0.171082  0.885139  1
  Mg  Mg62  1  0.686980  0.344899  0.885294  1
  Mg  Mg63  1  0.673881  0.015949  0.385176  1
  Mg  Mg64  1  0.639132  0.328918  0.385139  1
  Mg  Mg65  1  0.186980  0.155101  0.385294  1
  Mg  Mg66  1  0.339882  0.330419  0.585886  1
  Mg  Mg67  1  0.825803  0.164867  0.586472  1
  Mg  Mg68  1  0.334375  0.004704  0.586126  1
  Mg  Mg69  1  0.839882  0.169581  0.085886  1
  Mg  Mg70  1  0.325803  0.335133  0.086472  1
  Mg  Mg71  1  0.834376  0.495296  0.086126  1
  Mg  Mg72  1  0.302759  0.451660  0.565840  1
  Mg  Mg73  1  0.026101  0.122844  0.565433  1
  Mg  Mg74  1  0.671055  0.425546  0.565515  1
  Mg  Mg75  1  0.802759  0.048340  0.065840  1
  Mg  Mg76  1  0.526101  0.377156  0.065433  1
  Mg  Mg77  1  0.171055  0.074454  0.065515  1
  Mg  Mg78  1  0.354380  0.429180  0.895684  1
  Mg  Mg79  1  0.966585  0.108231  0.895339  1
  Mg  Mg80  1  0.678977  0.462579  0.895526  1
  Mg  Mg81  1  0.854380  0.070820  0.395684  1
  Mg  Mg82  1  0.466585  0.391769  0.395339  1
  Mg  Mg83  1  0.178977  0.037421  0.395526  1
  Mg  Mg84  1  0.509450  0.276304  0.692273  1
  Mg  Mg85  1  0.659784  0.107099  0.692383  1
  Mg  Mg86  1  0.330775  0.116556  0.692366  1
  Mg  Mg87  1  0.009450  0.223696  0.192273  1
  Mg  Mg88  1  0.159784  0.392901  0.192383  1
  Mg  Mg89  1  0.830775  0.383444  0.192366  1
  Mg  Mg90  1  0.026514  0.444636  0.670970  1
  Mg  Mg91  1  0.153706  0.264438  0.670948  1
  Mg  Mg92  1  0.819761  0.290986  0.670910  1
  Mg  Mg93  1  0.526514  0.055364  0.170970  1
  Mg  Mg94  1  0.653706  0.235562  0.170948  1
  Mg  Mg95  1  0.319761  0.209014  0.170910  1
  Mg  Mg96  1  0.159422  0.278874  0.981505  1
  Mg  Mg97  1  0.838591  0.280889  0.981474  1
  Mg  Mg98  1  0.002001  0.440281  0.981512  1
  Mg  Mg99  1  0.659422  0.221126  0.481505  1
  Mg  Mg100  1  0.338591  0.219111  0.481474  1
  Mg  Mg101  1  0.502001  0.059719  0.481512  1
  Mg  Mg102  1  0.495615  0.278456  0.991604  1
  Mg  Mg103  1  0.669955  0.112941  0.991762  1
  Mg  Mg104  1  0.334455  0.108552  0.991698  1
  Mg  Mg105  1  0.995615  0.221544  0.491604  1
  Mg  Mg106  1  0.169955  0.387059  0.491762  1
  Mg  Mg107  1  0.834455  0.391448  0.491698  1
  W  W108  1  0.013670  0.887977  0.703074  1
  W  W109  1  0.325205  0.549120  0.703267  1
  W  W110  1  0.661119  0.562813  0.703252  1
  W  W111  1  0.513670  0.612023  0.203074  1
  W  W112  1  0.825205  0.950880  0.203267  1
  W  W113  1  0.161119  0.937187  0.203252  1
  W  W114  1  0.177912  0.717075  0.841041  1
  W  W115  1  0.986661  0.552499  0.841048  1
  W  W116  1  0.835440  0.730420  0.841027  1
  W  W117  1  0.677912  0.782925  0.341041  1
  W  W118  1  0.486661  0.947501  0.341048  1
  W  W119  1  0.335440  0.769580  0.341027  1
  W  W120  1  0.676861  0.880530  0.837683  1
  W  W121  1  0.482362  0.721362  0.837444  1
  W  W122  1  0.340780  0.898149  0.837579  1
  W  W123  1  0.176861  0.619470  0.337683  1
  W  W124  1  0.982362  0.778638  0.337444  1
  W  W125  1  0.840780  0.601851  0.337579  1
  W  W126  1  0.513670  0.387977  0.703074  1
  W  W127  1  0.825205  0.049120  0.703267  1
  W  W128  1  0.161119  0.062813  0.703252  1
  W  W129  1  0.013670  0.112023  0.203074  1
  W  W130  1  0.325205  0.450880  0.203267  1
  W  W131  1  0.661119  0.437187  0.203252  1
  W  W132  1  0.677912  0.217075  0.841041  1
  W  W133  1  0.486661  0.052499  0.841048  1
  W  W134  1  0.335440  0.230420  0.841027  1
  W  W135  1  0.177912  0.282925  0.341041  1
  W  W136  1  0.986661  0.447501  0.341048  1
  W  W137  1  0.835440  0.269580  0.341027  1
  W  W138  1  0.176861  0.380530  0.837683  1
  W  W139  1  0.982362  0.221362  0.837444  1
  W  W140  1  0.840780  0.398149  0.837579  1
  W  W141  1  0.676861  0.119470  0.337683  1
  W  W142  1  0.482362  0.278638  0.337444  1
  W  W143  1  0.340780  0.101851  0.337579  1
  N  N144  1  0.067710  0.940646  0.787979  1
  N  N145  1  0.877137  0.995724  0.788052  1
  N  N146  1  0.555182  0.563415  0.788534  1
  N  N147  1  0.567710  0.559354  0.287979  1
  N  N148  1  0.377137  0.504276  0.288052  1
  N  N149  1  0.055182  0.936585  0.288534  1
  N  N150  1  0.785798  0.865641  0.881275  1
  N  N151  1  0.405527  0.674310  0.880653  1
  N  N152  1  0.308611  0.960062  0.880944  1
  N  N153  1  0.285798  0.634359  0.381275  1
  N  N154  1  0.905527  0.825690  0.380653  1
  N  N155  1  0.808611  0.539938  0.380944  1
  N  N156  1  0.077136  0.872488  0.538354  1
  N  N157  1  0.270244  0.525166  0.538499  1
  N  N158  1  0.652517  0.602295  0.538533  1
  N  N159  1  0.577136  0.627512  0.038354  1
  N  N160  1  0.770244  0.974834  0.038499  1
  N  N161  1  0.152517  0.897705  0.038533  1
  N  N162  1  0.877300  0.760220  0.668208  1
  N  N163  1  0.201693  0.681226  0.668295  1
  N  N164  1  0.921004  0.558537  0.668252  1
  N  N165  1  0.377300  0.739780  0.168208  1
  N  N166  1  0.701693  0.818774  0.168295  1
  N  N167  1  0.421004  0.941463  0.168252  1
  N  N168  1  0.060295  0.729565  0.860010  1
  N  N169  1  0.064243  0.605043  0.860134  1
  N  N170  1  0.875457  0.665361  0.860091  1
  N  N171  1  0.560295  0.770435  0.360010  1
  N  N172  1  0.564243  0.894957  0.360134  1
  N  N173  1  0.375457  0.834639  0.360091  1
  N  N174  1  0.674735  0.928054  0.680359  1
  N  N175  1  0.554776  0.698696  0.680185  1
  N  N176  1  0.270611  0.873284  0.680250  1
  N  N177  1  0.174735  0.571946  0.180359  1
  N  N178  1  0.054776  0.801304  0.180185  1
  N  N179  1  0.770611  0.626716  0.180250  1
  N  N180  1  0.865650  0.764428  0.012704  1
  N  N181  1  0.213832  0.684956  0.012708  1
  N  N182  1  0.920529  0.550593  0.012708  1
  N  N183  1  0.365650  0.735572  0.512704  1
  N  N184  1  0.713832  0.815044  0.512708  1
  N  N185  1  0.420529  0.949407  0.512708  1
  N  N186  1  0.231313  0.776302  0.836905  1
  N  N187  1  0.548799  0.996184  0.836908  1
  N  N188  1  0.719880  0.727525  0.836931  1
  N  N189  1  0.731313  0.723698  0.336905  1
  N  N190  1  0.048799  0.503816  0.336908  1
  N  N191  1  0.219880  0.772475  0.336931  1
  N  N192  1  0.020040  0.837078  0.846546  1
  N  N193  1  0.245662  0.571404  0.846665  1
  N  N194  1  0.734351  0.591456  0.846585  1
  N  N195  1  0.520040  0.662922  0.346546  1
  N  N196  1  0.745662  0.928596  0.346665  1
  N  N197  1  0.234351  0.908544  0.346585  1
  N  N198  1  0.622101  0.913564  0.991149  1
  N  N199  1  0.559258  0.732185  0.991020  1
  N  N200  1  0.318551  0.854284  0.991124  1
  N  N201  1  0.122101  0.586436  0.491149  1
  N  N202  1  0.059258  0.767815  0.491020  1
  N  N203  1  0.818551  0.645716  0.491124  1
  N  N204  1  0.903873  0.901563  0.624171  1
  N  N205  1  0.400581  0.597207  0.624528  1
  N  N206  1  0.695613  0.501132  0.624311  1
  N  N207  1  0.403873  0.598437  0.124171  1
  N  N208  1  0.900581  0.902793  0.124528  1
  N  N209  1  0.195613  0.998868  0.124311  1
  N  N210  1  0.620401  0.821454  0.801729  1
  N  N211  1  0.421980  0.779137  0.801667  1
  N  N212  1  0.457648  0.899467  0.801762  1
  N  N213  1  0.120401  0.678546  0.301729  1
  N  N214  1  0.921980  0.720863  0.301667  1
  N  N215  1  0.957648  0.600533  0.301762  1
  N  N216  1  0.567710  0.440646  0.787979  1
  N  N217  1  0.377137  0.495724  0.788052  1
  N  N218  1  0.055182  0.063415  0.788534  1
  N  N219  1  0.067710  0.059354  0.287979  1
  N  N220  1  0.877137  0.004276  0.288052  1
  N  N221  1  0.555182  0.436585  0.288534  1
  N  N222  1  0.285798  0.365641  0.881275  1
  N  N223  1  0.905527  0.174310  0.880653  1
  N  N224  1  0.808611  0.460062  0.880944  1
  N  N225  1  0.785798  0.134359  0.381275  1
  N  N226  1  0.405527  0.325690  0.380653  1
  N  N227  1  0.308611  0.039938  0.380944  1
  N  N228  1  0.577136  0.372488  0.538354  1
  N  N229  1  0.770244  0.025166  0.538499  1
  N  N230  1  0.152517  0.102295  0.538533  1
  N  N231  1  0.077136  0.127512  0.038354  1
  N  N232  1  0.270244  0.474834  0.038499  1
  N  N233  1  0.652517  0.397705  0.038533  1
  N  N234  1  0.377300  0.260220  0.668208  1
  N  N235  1  0.701693  0.181226  0.668295  1
  N  N236  1  0.421004  0.058537  0.668252  1
  N  N237  1  0.877300  0.239780  0.168208  1
  N  N238  1  0.201693  0.318774  0.168295  1
  N  N239  1  0.921004  0.441463  0.168252  1
  N  N240  1  0.560295  0.229565  0.860010  1
  N  N241  1  0.564243  0.105043  0.860134  1
  N  N242  1  0.375457  0.165361  0.860091  1
  N  N243  1  0.060295  0.270435  0.360010  1
  N  N244  1  0.064243  0.394957  0.360134  1
  N  N245  1  0.875457  0.334639  0.360091  1
  N  N246  1  0.174735  0.428054  0.680359  1
  N  N247  1  0.054776  0.198696  0.680185  1
  N  N248  1  0.770611  0.373284  0.680250  1
  N  N249  1  0.674735  0.071946  0.180359  1
  N  N250  1  0.554776  0.301304  0.180185  1
  N  N251  1  0.270611  0.126716  0.180250  1
  N  N252  1  0.365650  0.264428  0.012704  1
  N  N253  1  0.713832  0.184956  0.012708  1
  N  N254  1  0.420529  0.050593  0.012708  1
  N  N255  1  0.865650  0.235572  0.512704  1
  N  N256  1  0.213832  0.315044  0.512708  1
  N  N257  1  0.920529  0.449407  0.512708  1
  N  N258  1  0.731313  0.276302  0.836905  1
  N  N259  1  0.048799  0.496184  0.836908  1
  N  N260  1  0.219880  0.227525  0.836931  1
  N  N261  1  0.231313  0.223698  0.336905  1
  N  N262  1  0.548799  0.003816  0.336908  1
  N  N263  1  0.719880  0.272475  0.336931  1
  N  N264  1  0.520040  0.337078  0.846546  1
  N  N265  1  0.745662  0.071404  0.846665  1
  N  N266  1  0.234351  0.091456  0.846585  1
  N  N267  1  0.020040  0.162922  0.346546  1
  N  N268  1  0.245662  0.428596  0.346665  1
  N  N269  1  0.734351  0.408544  0.346585  1
  N  N270  1  0.122101  0.413564  0.991149  1
  N  N271  1  0.059258  0.232185  0.991020  1
  N  N272  1  0.818551  0.354284  0.991124  1
  N  N273  1  0.622101  0.086436  0.491149  1
  N  N274  1  0.559258  0.267815  0.491020  1
  N  N275  1  0.318551  0.145716  0.491124  1
  N  N276  1  0.403873  0.401563  0.624171  1
  N  N277  1  0.900581  0.097207  0.624528  1
  N  N278  1  0.195613  0.001132  0.624311  1
  N  N279  1  0.903873  0.098437  0.124171  1
  N  N280  1  0.400581  0.402793  0.124528  1
  N  N281  1  0.695613  0.498868  0.124311  1
  N  N282  1  0.120401  0.321454  0.801729  1
  N  N283  1  0.921980  0.279137  0.801667  1
  N  N284  1  0.957648  0.399467  0.801762  1
  N  N285  1  0.620401  0.178546  0.301729  1
  N  N286  1  0.421980  0.220863  0.301667  1
  N  N287  1  0.457648  0.100533  0.301762  1
