# generated using pymatgen
data_Na3W2N5
_symmetry_space_group_name_H-M   'P 1'
_cell_length_a   9.67463671
_cell_length_b   9.67463671
_cell_length_c   9.67463671
_cell_angle_alpha   101.74109399
_cell_angle_beta   101.74109399
_cell_angle_gamma   126.37167240
_symmetry_Int_Tables_number   1
_chemical_formula_structural   Na3W2N5
_chemical_formula_sum   'Na12 W8 N20'
_cell_volume   650.72356809
_cell_formula_units_Z   4
loop_
 _symmetry_equiv_pos_site_id
 _symmetry_equiv_pos_as_xyz
  1  'x, y, z'
loop_
 _atom_site_type_symbol
 _atom_site_label
 _atom_site_symmetry_multiplicity
 _atom_site_fract_x
 _atom_site_fract_y
 _atom_site_fract_z
 _atom_site_occupancy
  Na  Na0  1  0.881027  0.544140  0.880034  1
  Na  Na1  1  0.664107  0.000993  0.119966  1
  Na  Na2  1  0.794140  0.414107  0.163113  1
  Na  Na3  1  0.250993  0.631027  0.836887  1
  Na  Na4  1  0.589799  0.821622  0.373885  1
  Na  Na5  1  0.447737  0.215914  0.626115  1
  Na  Na6  1  0.071622  0.197737  0.731823  1
  Na  Na7  1  0.465914  0.339799  0.268177  1
  Na  Na8  1  0.931949  0.931949  0.000000  1
  Na  Na9  1  0.181949  0.681949  0.500000  1
  Na  Na10  1  0.775304  0.275304  0.500000  1
  Na  Na11  1  0.525304  0.525304  0.000000  1
  W  W12  1  0.637461  0.037190  0.777718  1
  W  W13  1  0.259472  0.859743  0.222282  1
  W  W14  1  0.287190  0.009472  0.899729  1
  W  W15  1  0.109743  0.387461  0.100271  1
  W  W16  1  0.885607  0.699326  0.618212  1
  W  W17  1  0.081114  0.267395  0.381788  1
  W  W18  1  0.949326  0.831114  0.313719  1
  W  W19  1  0.517395  0.635607  0.686281  1
  N  N20  1  0.690684  0.209405  0.705509  1
  N  N21  1  0.503896  0.985175  0.294491  1
  N  N22  1  0.459405  0.253896  0.018721  1
  N  N23  1  0.235175  0.440684  0.981279  1
  N  N24  1  0.857667  0.694618  0.112840  1
  N  N25  1  0.581779  0.744827  0.887160  1
  N  N26  1  0.944618  0.331779  0.336951  1
  N  N27  1  0.994827  0.607667  0.663049  1
  N  N28  1  0.854870  0.168530  0.965142  1
  N  N29  1  0.203387  0.889728  0.034858  1
  N  N30  1  0.418530  0.953387  0.813659  1
  N  N31  1  0.139728  0.604870  0.186341  1
  N  N32  1  0.818064  0.653581  0.400952  1
  N  N33  1  0.252629  0.417112  0.599048  1
  N  N34  1  0.903581  0.002629  0.335517  1
  N  N35  1  0.667112  0.568064  0.664483  1
  N  N36  1  0.072980  0.961158  0.753590  1
  N  N37  1  0.207568  0.319390  0.246410  1
  N  N38  1  0.211158  0.957568  0.388178  1
  N  N39  1  0.569390  0.822980  0.611822  1
