# generated using pymatgen
data_Rb2Na(NO3)3
_symmetry_space_group_name_H-M   'P 1'
_cell_length_a   5.40849500
_cell_length_b   9.19545800
_cell_length_c   9.81518400
_cell_angle_alpha   90.00000000
_cell_angle_beta   90.00000000
_cell_angle_gamma   90.00000000
_symmetry_Int_Tables_number   1
_chemical_formula_structural   Rb2Na(NO3)3
_chemical_formula_sum   'Rb4 Na2 N6 O18'
_cell_volume   488.14432324
_cell_formula_units_Z   2
loop_
 _symmetry_equiv_pos_site_id
 _symmetry_equiv_pos_as_xyz
  1  'x, y, z'
loop_
 _atom_site_type_symbol
 _atom_site_label
 _atom_site_symmetry_multiplicity
 _atom_site_fract_x
 _atom_site_fract_y
 _atom_site_fract_z
 _atom_site_occupancy
  Rb  Rb0  1  0.500000  0.918850  0.832827  1
  Rb  Rb1  1  0.500000  0.081150  0.332827  1
  Rb  Rb2  1  0.500000  0.621558  0.160095  1
  Rb  Rb3  1  0.500000  0.378442  0.660095  1
  Na  Na4  1  0.000000  0.300061  0.116626  1
  Na  Na5  1  0.000000  0.699939  0.616626  1
  N  N6  1  0.000000  0.947876  0.127820  1
  N  N7  1  0.000000  0.052124  0.627820  1
  N  N8  1  0.000000  0.587272  0.915124  1
  N  N9  1  0.000000  0.412728  0.415124  1
  N  N10  1  0.500000  0.748503  0.483141  1
  N  N11  1  0.500000  0.251497  0.983141  1
  O  O12  1  0.000000  0.060598  0.204733  1
  O  O13  1  0.000000  0.939402  0.704733  1
  O  O14  1  0.796435  0.893521  0.091070  1
  O  O15  1  0.203565  0.893521  0.091070  1
  O  O16  1  0.203565  0.106479  0.591070  1
  O  O17  1  0.796435  0.106479  0.591070  1
  O  O18  1  0.000000  0.542729  0.038028  1
  O  O19  1  0.000000  0.457271  0.538028  1
  O  O20  1  0.202904  0.609783  0.854190  1
  O  O21  1  0.797096  0.609783  0.854190  1
  O  O22  1  0.797096  0.390217  0.354191  1
  O  O23  1  0.202904  0.390217  0.354191  1
  O  O24  1  0.500000  0.701700  0.605329  1
  O  O25  1  0.500000  0.298300  0.105329  1
  O  O26  1  0.703769  0.771703  0.422969  1
  O  O27  1  0.296231  0.771703  0.422969  1
  O  O28  1  0.296231  0.228297  0.922969  1
  O  O29  1  0.703769  0.228297  0.922969  1
