# generated using pymatgen
data_ZnAg2GeO4
_symmetry_space_group_name_H-M   'P 1'
_cell_length_a   5.68643600
_cell_length_b   5.63768400
_cell_length_c   9.10277138
_cell_angle_alpha   52.30590918
_cell_angle_beta   90.00000000
_cell_angle_gamma   90.00000000
_symmetry_Int_Tables_number   1
_chemical_formula_structural   ZnAg2GeO4
_chemical_formula_sum   'Zn2 Ag4 Ge2 O8'
_cell_volume   230.91297184
_cell_formula_units_Z   2
loop_
 _symmetry_equiv_pos_site_id
 _symmetry_equiv_pos_as_xyz
  1  'x, y, z'
loop_
 _atom_site_type_symbol
 _atom_site_label
 _atom_site_symmetry_multiplicity
 _atom_site_fract_x
 _atom_site_fract_y
 _atom_site_fract_z
 _atom_site_occupancy
  Zn  Zn0  1  0.811151  0.998302  0.501148  1
  Zn  Zn1  1  0.188849  0.998302  0.001148  1
  Ag  Ag2  1  0.194941  0.510132  0.496073  1
  Ag  Ag3  1  0.805059  0.510132  0.996073  1
  Ag  Ag4  1  0.304928  0.738805  0.756812  1
  Ag  Ag5  1  0.695072  0.738805  0.256812  1
  Ge  Ge6  1  0.686634  0.250486  0.750497  1
  Ge  Ge7  1  0.313366  0.250486  0.250497  1
  O  O8  1  0.293273  0.596224  0.216734  1
  O  O9  1  0.706727  0.596224  0.716734  1
  O  O10  1  0.797120  0.295650  0.551421  1
  O  O11  1  0.202880  0.295650  0.051421  1
  O  O12  1  0.614218  0.137131  0.282036  1
  O  O13  1  0.148838  0.971271  0.453278  1
  O  O14  1  0.385782  0.137131  0.782036  1
  O  O15  1  0.851162  0.971271  0.953278  1
