# generated using pymatgen
data_AlCr(WO4)2
_symmetry_space_group_name_H-M   'P 1'
_cell_length_a   5.02399000
_cell_length_b   5.79633251
_cell_length_c   6.65503974
_cell_angle_alpha   65.45539295
_cell_angle_beta   80.58051975
_cell_angle_gamma   71.44120456
_symmetry_Int_Tables_number   1
_chemical_formula_structural   AlCr(WO4)2
_chemical_formula_sum   'Al1 Cr1 W2 O8'
_cell_volume   167.00889097
_cell_formula_units_Z   1
loop_
 _symmetry_equiv_pos_site_id
 _symmetry_equiv_pos_as_xyz
  1  'x, y, z'
loop_
 _atom_site_type_symbol
 _atom_site_label
 _atom_site_symmetry_multiplicity
 _atom_site_fract_x
 _atom_site_fract_y
 _atom_site_fract_z
 _atom_site_occupancy
  Al  Al0  1  0.457106  0.479420  0.419673  1
  Cr  Cr1  1  0.972447  0.132711  0.772541  1
  W  W2  1  0.704834  0.785129  0.606715  1
  W  W3  1  0.244818  0.488469  0.923684  1
  O  O4  1  0.634813  0.726766  0.367212  1
  O  O5  1  0.716158  0.158455  0.521181  1
  O  O6  1  0.630636  0.413745  0.803644  1
  O  O7  1  0.869501  0.713981  0.896734  1
  O  O8  1  0.174814  0.174841  0.002543  1
  O  O9  1  0.323413  0.481295  0.188036  1
  O  O10  1  0.323233  0.867848  0.730013  1
  O  O11  1  0.148321  0.559744  0.589525  1
