# generated using pymatgen
data_LiGaSiO4
_symmetry_space_group_name_H-M   'P 1'
_cell_length_a   8.55317445
_cell_length_b   8.55317445
_cell_length_c   8.55317516
_cell_angle_alpha   107.88318982
_cell_angle_beta   107.88318982
_cell_angle_gamma   107.88318693
_symmetry_Int_Tables_number   1
_chemical_formula_structural   LiGaSiO4
_chemical_formula_sum   'Li6 Ga6 Si6 O24'
_cell_volume   508.03061522
_cell_formula_units_Z   6
loop_
 _symmetry_equiv_pos_site_id
 _symmetry_equiv_pos_as_xyz
  1  'x, y, z'
loop_
 _atom_site_type_symbol
 _atom_site_label
 _atom_site_symmetry_multiplicity
 _atom_site_fract_x
 _atom_site_fract_y
 _atom_site_fract_z
 _atom_site_occupancy
  Li  Li0  1  0.789584  0.566406  0.391201  1
  Li  Li1  1  0.276309  0.873877  0.106463  1
  Li  Li2  1  0.873877  0.106463  0.276309  1
  Li  Li3  1  0.106463  0.276309  0.873877  1
  Li  Li4  1  0.566406  0.391201  0.789584  1
  Li  Li5  1  0.391201  0.789584  0.566406  1
  Ga  Ga6  1  0.762187  0.946913  0.542271  1
  Ga  Ga7  1  0.946913  0.542271  0.762187  1
  Ga  Ga8  1  0.542271  0.762187  0.946913  1
  Ga  Ga9  1  0.230580  0.055348  0.465363  1
  Ga  Ga10  1  0.055348  0.465363  0.230580  1
  Ga  Ga11  1  0.465363  0.230580  0.055348  1
  Si  Si12  1  0.718495  0.124161  0.905397  1
  Si  Si13  1  0.124161  0.905397  0.718495  1
  Si  Si14  1  0.905397  0.718495  0.124161  1
  Si  Si15  1  0.433413  0.612023  0.204199  1
  Si  Si16  1  0.612023  0.204199  0.433413  1
  Si  Si17  1  0.204199  0.433413  0.612023  1
  O  O18  1  0.295257  0.620799  0.301511  1
  O  O19  1  0.642884  0.702703  0.369550  1
  O  O20  1  0.369550  0.642884  0.702703  1
  O  O21  1  0.996847  0.937732  0.268953  1
  O  O22  1  0.937732  0.268953  0.996847  1
  O  O23  1  0.268953  0.996847  0.937732  1
  O  O24  1  0.006123  0.023423  0.689267  1
  O  O25  1  0.023423  0.689267  0.006123  1
  O  O26  1  0.689267  0.006123  0.023423  1
  O  O27  1  0.702703  0.369550  0.642884  1
  O  O28  1  0.301511  0.295257  0.620799  1
  O  O29  1  0.620799  0.301511  0.295257  1
  O  O30  1  0.398314  0.063344  0.367781  1
  O  O31  1  0.367781  0.398314  0.063344  1
  O  O32  1  0.063344  0.367781  0.398314  1
  O  O33  1  0.646662  0.979941  0.692633  1
  O  O34  1  0.692633  0.646662  0.979941  1
  O  O35  1  0.979941  0.692633  0.646662  1
  O  O36  1  0.917788  0.595990  0.239423  1
  O  O37  1  0.239423  0.917788  0.595990  1
  O  O38  1  0.595990  0.239423  0.917788  1
  O  O39  1  0.090185  0.421479  0.735619  1
  O  O40  1  0.735619  0.090185  0.421479  1
  O  O41  1  0.421479  0.735619  0.090185  1
