# generated using pymatgen
data_LaF3
_symmetry_space_group_name_H-M   'P 1'
_cell_length_a   7.26073392
_cell_length_b   7.26073392
_cell_length_c   7.16531000
_cell_angle_alpha   90.00000000
_cell_angle_beta   90.00000000
_cell_angle_gamma   119.99999926
_symmetry_Int_Tables_number   1
_chemical_formula_structural   LaF3
_chemical_formula_sum   'La6 F18'
_cell_volume   327.13473718
_cell_formula_units_Z   6
loop_
 _symmetry_equiv_pos_site_id
 _symmetry_equiv_pos_as_xyz
  1  'x, y, z'
loop_
 _atom_site_type_symbol
 _atom_site_label
 _atom_site_symmetry_multiplicity
 _atom_site_fract_x
 _atom_site_fract_y
 _atom_site_fract_z
 _atom_site_occupancy
  La  La0  1  0.671361  0.671361  0.250000  1
  La  La1  1  0.000000  0.671361  0.750000  1
  La  La2  1  0.671361  0.000000  0.750000  1
  La  La3  1  0.328639  0.000000  0.250000  1
  La  La4  1  0.000000  0.328639  0.250000  1
  La  La5  1  0.328639  0.328639  0.750000  1
  F  F6  1  0.000000  0.000000  0.500000  1
  F  F7  1  0.000000  0.000000  0.000000  1
  F  F8  1  0.333333  0.666667  0.250000  1
  F  F9  1  0.666667  0.333333  0.750000  1
  F  F10  1  0.666667  0.333333  0.250000  1
  F  F11  1  0.333333  0.666667  0.750000  1
  F  F12  1  0.343736  0.000000  0.917158  1
  F  F13  1  0.343736  0.343736  0.417158  1
  F  F14  1  0.000000  0.656264  0.417158  1
  F  F15  1  0.000000  0.343736  0.917158  1
  F  F16  1  0.656264  0.656264  0.917158  1
  F  F17  1  0.343736  0.000000  0.582842  1
  F  F18  1  0.656264  0.656264  0.582842  1
  F  F19  1  0.656264  0.000000  0.417158  1
  F  F20  1  0.000000  0.343736  0.582842  1
  F  F21  1  0.000000  0.656264  0.082842  1
  F  F22  1  0.656264  0.000000  0.082842  1
  F  F23  1  0.343736  0.343736  0.082842  1
