# generated using pymatgen
data_Cd4SiS6
_symmetry_space_group_name_H-M   'P 1'
_cell_length_a   7.24483721
_cell_length_b   7.24483721
_cell_length_c   12.61519497
_cell_angle_alpha   72.21117317
_cell_angle_beta   72.21117317
_cell_angle_gamma   59.46898064
_symmetry_Int_Tables_number   1
_chemical_formula_structural   Cd4SiS6
_chemical_formula_sum   'Cd8 Si2 S12'
_cell_volume   533.87272944
_cell_formula_units_Z   2
loop_
 _symmetry_equiv_pos_site_id
 _symmetry_equiv_pos_as_xyz
  1  'x, y, z'
loop_
 _atom_site_type_symbol
 _atom_site_label
 _atom_site_symmetry_multiplicity
 _atom_site_fract_x
 _atom_site_fract_y
 _atom_site_fract_z
 _atom_site_occupancy
  Cd  Cd0  1  0.632905  0.421997  0.688933  1
  Cd  Cd1  1  0.421997  0.632905  0.188933  1
  Cd  Cd2  1  0.258118  0.108681  0.692422  1
  Cd  Cd3  1  0.108681  0.258118  0.192422  1
  Cd  Cd4  1  0.014590  0.618131  0.847714  1
  Cd  Cd5  1  0.618131  0.014590  0.347714  1
  Cd  Cd6  1  0.113075  0.891988  0.499298  1
  Cd  Cd7  1  0.891988  0.113075  0.999298  1
  Si  Si8  1  0.025035  0.479392  0.437282  1
  Si  Si9  1  0.479392  0.025035  0.937282  1
  S  S10  1  0.305648  0.335587  0.985849  1
  S  S11  1  0.335587  0.305648  0.485849  1
  S  S12  1  0.833673  0.309924  0.490970  1
  S  S13  1  0.309924  0.833673  0.990970  1
  S  S14  1  0.902821  0.362931  0.806207  1
  S  S15  1  0.362931  0.902821  0.306207  1
  S  S16  1  0.588549  0.058255  0.757653  1
  S  S17  1  0.058255  0.588549  0.257653  1
  S  S18  1  0.767053  0.829537  0.012281  1
  S  S19  1  0.829537  0.767053  0.512281  1
  S  S20  1  0.755309  0.258001  0.185091  1
  S  S21  1  0.258001  0.755309  0.685091  1
