# generated using pymatgen
data_K2Zn(PO3)4
_symmetry_space_group_name_H-M   'P 1'
_cell_length_a   8.47653137
_cell_length_b   8.47653137
_cell_length_c   7.82133693
_cell_angle_alpha   82.01035109
_cell_angle_beta   82.01035109
_cell_angle_gamma   97.08146353
_symmetry_Int_Tables_number   1
_chemical_formula_structural   K2Zn(PO3)4
_chemical_formula_sum   'K4 Zn2 P8 O24'
_cell_volume   545.26093343
_cell_formula_units_Z   2
loop_
 _symmetry_equiv_pos_site_id
 _symmetry_equiv_pos_as_xyz
  1  'x, y, z'
loop_
 _atom_site_type_symbol
 _atom_site_label
 _atom_site_symmetry_multiplicity
 _atom_site_fract_x
 _atom_site_fract_y
 _atom_site_fract_z
 _atom_site_occupancy
  K  K0  1  0.507088  0.757982  0.416241  1
  K  K1  1  0.757982  0.507088  0.916241  1
  K  K2  1  0.468159  0.199931  0.591598  1
  K  K3  1  0.199931  0.468159  0.091598  1
  Zn  Zn4  1  0.150900  0.841742  0.757793  1
  Zn  Zn5  1  0.841742  0.150900  0.257793  1
  P  P6  1  0.815848  0.965312  0.668024  1
  P  P7  1  0.965312  0.815848  0.168024  1
  P  P8  1  0.503595  0.827090  0.927425  1
  P  P9  1  0.827090  0.503595  0.427425  1
  P  P10  1  0.505397  0.132755  0.084089  1
  P  P11  1  0.132755  0.505397  0.584089  1
  P  P12  1  0.188440  0.036230  0.320406  1
  P  P13  1  0.036230  0.188440  0.820406  1
  O  O14  1  0.489377  0.659448  0.023025  1
  O  O15  1  0.659448  0.489377  0.523025  1
  O  O16  1  0.395872  0.869923  0.795419  1
  O  O17  1  0.869923  0.395872  0.295419  1
  O  O18  1  0.688860  0.877557  0.836515  1
  O  O19  1  0.877557  0.688860  0.336515  1
  O  O20  1  0.492112  0.940984  0.078838  1
  O  O21  1  0.940984  0.492112  0.578838  1
  O  O22  1  0.609436  0.167189  0.220573  1
  O  O23  1  0.167189  0.609436  0.720573  1
  O  O24  1  0.542394  0.233457  0.907948  1
  O  O25  1  0.233457  0.542394  0.407948  1
  O  O26  1  0.321663  0.146583  0.166690  1
  O  O27  1  0.146583  0.321663  0.666690  1
  O  O28  1  0.269336  0.974703  0.470442  1
  O  O29  1  0.974703  0.269336  0.970442  1
  O  O30  1  0.058339  0.139937  0.345970  1
  O  O31  1  0.139937  0.058339  0.845970  1
  O  O32  1  0.131028  0.883948  0.229349  1
  O  O33  1  0.883948  0.131028  0.729349  1
  O  O34  1  0.727801  0.011407  0.518163  1
  O  O35  1  0.011407  0.727801  0.018163  1
  O  O36  1  0.941950  0.856227  0.649492  1
  O  O37  1  0.856227  0.941950  0.149492  1
