# generated using pymatgen
data_CoHgC4(SeN)4
_symmetry_space_group_name_H-M   'P 1'
_cell_length_a   8.46436595
_cell_length_b   8.46436595
_cell_length_c   8.46436595
_cell_angle_alpha   95.54080992
_cell_angle_beta   95.54080992
_cell_angle_gamma   143.79323443
_symmetry_Int_Tables_number   1
_chemical_formula_structural   CoHgC4(SeN)4
_chemical_formula_sum   'Co1 Hg1 C4 Se4 N4'
_cell_volume   340.48806328
_cell_formula_units_Z   1
loop_
 _symmetry_equiv_pos_site_id
 _symmetry_equiv_pos_as_xyz
  1  'x, y, z'
loop_
 _atom_site_type_symbol
 _atom_site_label
 _atom_site_symmetry_multiplicity
 _atom_site_fract_x
 _atom_site_fract_y
 _atom_site_fract_z
 _atom_site_occupancy
  Co  Co0  1  0.250000  0.750000  0.500000  1
  Hg  Hg1  1  0.000000  0.000000  0.000000  1
  C  C2  1  0.805734  0.032887  0.651277  1
  C  C3  1  0.967113  0.618390  0.772847  1
  C  C4  1  0.845543  0.194266  0.227153  1
  C  C5  1  0.381610  0.154457  0.348723  1
  Se  Se6  1  0.131938  0.198074  0.730442  1
  Se  Se7  1  0.801926  0.532368  0.933864  1
  Se  Se8  1  0.598504  0.868062  0.066136  1
  Se  Se9  1  0.467632  0.401496  0.269558  1
  N  N10  1  0.594097  0.925571  0.594773  1
  N  N11  1  0.074429  0.669202  0.668526  1
  N  N12  1  0.330798  0.999324  0.405227  1
  N  N13  1  0.000676  0.405903  0.331474  1
