# generated using pymatgen
data_Te4MoW3S4
_symmetry_space_group_name_H-M   'P 1'
_cell_length_a   3.35724435
_cell_length_b   3.35724435
_cell_length_c   38.35284200
_cell_angle_alpha   90.00000000
_cell_angle_beta   90.00000000
_cell_angle_gamma   120.00000699
_symmetry_Int_Tables_number   1
_chemical_formula_structural   Te4MoW3S4
_chemical_formula_sum   'Te4 Mo1 W3 S4'
_cell_volume   374.36398090
_cell_formula_units_Z   1
loop_
 _symmetry_equiv_pos_site_id
 _symmetry_equiv_pos_as_xyz
  1  'x, y, z'
loop_
 _atom_site_type_symbol
 _atom_site_label
 _atom_site_symmetry_multiplicity
 _atom_site_fract_x
 _atom_site_fract_y
 _atom_site_fract_z
 _atom_site_occupancy
  Te  Te0  1  0.000000  0.000000  0.707148  1
  Te  Te1  1  0.333333  0.666667  0.044605  1
  Te  Te2  1  0.333333  0.666667  0.143233  1
  Te  Te3  1  0.000000  0.000000  0.607937  1
  Mo  Mo4  1  0.000000  0.000000  0.093906  1
  W  W5  1  0.000000  0.000000  0.469642  1
  W  W6  1  0.333333  0.666667  0.281815  1
  W  W7  1  0.333333  0.666667  0.657548  1
  S  S8  1  0.000000  0.000000  0.321412  1
  S  S9  1  0.333333  0.666667  0.430054  1
  S  S10  1  0.333333  0.666667  0.509243  1
  S  S11  1  0.000000  0.000000  0.242206  1
