# generated using pymatgen
data_Li2FeSiO4
_symmetry_space_group_name_H-M   'P 1'
_cell_length_a   6.33912300
_cell_length_b   7.37291262
_cell_length_c   7.37015738
_cell_angle_alpha   85.61398669
_cell_angle_beta   89.99953914
_cell_angle_gamma   89.99802836
_symmetry_Int_Tables_number   1
_chemical_formula_structural   Li2FeSiO4
_chemical_formula_sum   'Li8 Fe4 Si4 O16'
_cell_volume   343.45615867
_cell_formula_units_Z   4
loop_
 _symmetry_equiv_pos_site_id
 _symmetry_equiv_pos_as_xyz
  1  'x, y, z'
loop_
 _atom_site_type_symbol
 _atom_site_label
 _atom_site_symmetry_multiplicity
 _atom_site_fract_x
 _atom_site_fract_y
 _atom_site_fract_z
 _atom_site_occupancy
  Li  Li0  1  0.750324  0.362877  0.305400  1
  Li  Li1  1  0.750323  0.862882  0.805384  1
  Li  Li2  1  0.749699  0.444567  0.887138  1
  Li  Li3  1  0.749685  0.944578  0.387120  1
  Li  Li4  1  0.250301  0.444570  0.887133  1
  Li  Li5  1  0.250312  0.944558  0.387134  1
  Li  Li6  1  0.249680  0.362891  0.305412  1
  Li  Li7  1  0.249693  0.862879  0.805404  1
  Fe  Fe8  1  0.499981  0.617207  0.553705  1
  Fe  Fe9  1  0.999971  0.196356  0.632594  1
  Fe  Fe10  1  0.499924  0.117290  0.053605  1
  Fe  Fe11  1  0.000073  0.696264  0.132484  1
  Si  Si12  1  0.000010  0.109869  0.060465  1
  Si  Si13  1  0.000005  0.609907  0.560469  1
  Si  Si14  1  0.499985  0.689626  0.140105  1
  Si  Si15  1  0.499999  0.189599  0.640110  1
  O  O16  1  0.999988  0.449842  0.729982  1
  O  O17  1  0.000047  0.949832  0.229984  1
  O  O18  1  0.499994  0.520180  0.300179  1
  O  O19  1  0.500037  0.020136  0.800167  1
  O  O20  1  0.499979  0.385324  0.737679  1
  O  O21  1  0.499992  0.885287  0.237680  1
  O  O22  1  0.999995  0.512389  0.364659  1
  O  O23  1  0.000008  0.012352  0.864634  1
  O  O24  1  0.786135  0.236961  0.077270  1
  O  O25  1  0.786139  0.736971  0.577304  1
  O  O26  1  0.286079  0.672706  0.013052  1
  O  O27  1  0.286116  0.172722  0.513037  1
  O  O28  1  0.713881  0.672735  0.013050  1
  O  O29  1  0.713896  0.172721  0.513033  1
  O  O30  1  0.213885  0.236952  0.077316  1
  O  O31  1  0.213865  0.736972  0.577312  1
