# generated using pymatgen
data_Zn2SbN3
_symmetry_space_group_name_H-M   'P 1'
_cell_length_a   5.83233012
_cell_length_b   5.83233012
_cell_length_c   5.46726600
_cell_angle_alpha   90.00000000
_cell_angle_beta   90.00000000
_cell_angle_gamma   120.08898314
_symmetry_Int_Tables_number   1
_chemical_formula_structural   Zn2SbN3
_chemical_formula_sum   'Zn4 Sb2 N6'
_cell_volume   160.91440428
_cell_formula_units_Z   2
loop_
 _symmetry_equiv_pos_site_id
 _symmetry_equiv_pos_as_xyz
  1  'x, y, z'
loop_
 _atom_site_type_symbol
 _atom_site_label
 _atom_site_symmetry_multiplicity
 _atom_site_fract_x
 _atom_site_fract_y
 _atom_site_fract_z
 _atom_site_occupancy
  Zn  Zn0  1  0.490337  0.834636  0.973205  1
  Zn  Zn1  1  0.834636  0.490337  0.973205  1
  Zn  Zn2  1  0.509663  0.165364  0.473205  1
  Zn  Zn3  1  0.165364  0.509663  0.473205  1
  Sb  Sb4  1  0.821957  0.821957  0.461588  1
  Sb  Sb5  1  0.178043  0.178043  0.961588  1
  N  N6  1  0.502681  0.832554  0.348296  1
  N  N7  1  0.832554  0.502681  0.348296  1
  N  N8  1  0.497319  0.167446  0.848296  1
  N  N9  1  0.167446  0.497319  0.848296  1
  N  N10  1  0.841804  0.841804  0.839791  1
  N  N11  1  0.158196  0.158196  0.339791  1
