# generated using pymatgen
data_CsC2N3
_symmetry_space_group_name_H-M   'P 1'
_cell_length_a   4.89584909
_cell_length_b   4.89584909
_cell_length_c   23.48484100
_cell_angle_alpha   90.00000000
_cell_angle_beta   90.00000000
_cell_angle_gamma   120.00001473
_symmetry_Int_Tables_number   1
_chemical_formula_structural   CsC2N3
_chemical_formula_sum   'Cs3 C6 N9'
_cell_volume   487.49956973
_cell_formula_units_Z   3
loop_
 _symmetry_equiv_pos_site_id
 _symmetry_equiv_pos_as_xyz
  1  'x, y, z'
loop_
 _atom_site_type_symbol
 _atom_site_label
 _atom_site_symmetry_multiplicity
 _atom_site_fract_x
 _atom_site_fract_y
 _atom_site_fract_z
 _atom_site_occupancy
  Cs  Cs0  1  0.000000  0.300504  0.666667  1
  Cs  Cs1  1  0.300504  0.000000  0.333333  1
  Cs  Cs2  1  0.699496  0.699496  0.000000  1
  C  C3  1  0.980003  0.281915  0.216371  1
  C  C4  1  0.301912  0.019997  0.883038  1
  C  C5  1  0.718085  0.698088  0.549704  1
  C  C6  1  0.019997  0.301912  0.116962  1
  C  C7  1  0.281915  0.980003  0.783629  1
  C  C8  1  0.698088  0.718085  0.450296  1
  N  N9  1  0.000000  0.180884  0.166667  1
  N  N10  1  0.180884  0.000000  0.833333  1
  N  N11  1  0.819116  0.819116  0.500000  1
  N  N12  1  0.961745  0.343928  0.264611  1
  N  N13  1  0.382183  0.038255  0.931278  1
  N  N14  1  0.656072  0.617817  0.597945  1
  N  N15  1  0.038255  0.382183  0.068722  1
  N  N16  1  0.343928  0.961745  0.735389  1
  N  N17  1  0.617817  0.656072  0.402055  1
