# generated using pymatgen
data_LiVN2
_symmetry_space_group_name_H-M   'P 1'
_cell_length_a   5.08226100
_cell_length_b   5.46863200
_cell_length_c   6.65077000
_cell_angle_alpha   90.00000000
_cell_angle_beta   90.00000000
_cell_angle_gamma   90.00000000
_symmetry_Int_Tables_number   1
_chemical_formula_structural   LiVN2
_chemical_formula_sum   'Li4 V4 N8'
_cell_volume   184.84495128
_cell_formula_units_Z   4
loop_
 _symmetry_equiv_pos_site_id
 _symmetry_equiv_pos_as_xyz
  1  'x, y, z'
loop_
 _atom_site_type_symbol
 _atom_site_label
 _atom_site_symmetry_multiplicity
 _atom_site_fract_x
 _atom_site_fract_y
 _atom_site_fract_z
 _atom_site_occupancy
  Li  Li0  1  0.991660  0.582329  0.877108  1
  Li  Li1  1  0.491660  0.417671  0.122892  1
  Li  Li2  1  0.491660  0.917671  0.377108  1
  Li  Li3  1  0.991660  0.082329  0.622892  1
  V  V4  1  0.004594  0.573924  0.374710  1
  V  V5  1  0.504594  0.426076  0.625290  1
  V  V6  1  0.504594  0.926076  0.874710  1
  V  V7  1  0.004594  0.073924  0.125290  1
  N  N8  1  0.357568  0.553794  0.400709  1
  N  N9  1  0.857568  0.446206  0.599291  1
  N  N10  1  0.857568  0.946206  0.900709  1
  N  N11  1  0.357568  0.053794  0.099291  1
  N  N12  1  0.416177  0.605513  0.845477  1
  N  N13  1  0.916177  0.394487  0.154523  1
  N  N14  1  0.916177  0.894487  0.345477  1
  N  N15  1  0.416177  0.105513  0.654523  1
