# generated using pymatgen
data_Al4CN3O
_symmetry_space_group_name_H-M   'P 1'
_cell_length_a   5.39663147
_cell_length_b   5.39663147
_cell_length_c   9.06709800
_cell_angle_alpha   90.00000000
_cell_angle_beta   90.00000000
_cell_angle_gamma   112.03265358
_symmetry_Int_Tables_number   1
_chemical_formula_structural   Al4CN3O
_chemical_formula_sum   'Al8 C2 N6 O2'
_cell_volume   244.78207424
_cell_formula_units_Z   2
loop_
 _symmetry_equiv_pos_site_id
 _symmetry_equiv_pos_as_xyz
  1  'x, y, z'
loop_
 _atom_site_type_symbol
 _atom_site_label
 _atom_site_symmetry_multiplicity
 _atom_site_fract_x
 _atom_site_fract_y
 _atom_site_fract_z
 _atom_site_occupancy
  Al  Al0  1  0.895378  0.548780  0.391131  1
  Al  Al1  1  0.451220  0.104622  0.391131  1
  Al  Al2  1  0.104622  0.451220  0.891131  1
  Al  Al3  1  0.548780  0.895378  0.891131  1
  Al  Al4  1  0.048879  0.951121  0.676896  1
  Al  Al5  1  0.951121  0.048879  0.176896  1
  Al  Al6  1  0.403436  0.596564  0.592410  1
  Al  Al7  1  0.596564  0.403436  0.092410  1
  C  C8  1  0.196387  0.803613  0.504916  1
  C  C9  1  0.803613  0.196387  0.004916  1
  N  N10  1  0.678814  0.830838  0.707649  1
  N  N11  1  0.321186  0.169162  0.207649  1
  N  N12  1  0.181990  0.818010  0.836909  1
  N  N13  1  0.830838  0.678814  0.207649  1
  N  N14  1  0.818010  0.181990  0.336909  1
  N  N15  1  0.169162  0.321186  0.707649  1
  O  O16  1  0.435737  0.564263  0.976830  1
  O  O17  1  0.564262  0.435738  0.476830  1
