# generated using pymatgen
data_CuB(CN)4
_symmetry_space_group_name_H-M   'P 1'
_cell_length_a   5.42574800
_cell_length_b   5.42574800
_cell_length_c   5.42574800
_cell_angle_alpha   90.00000000
_cell_angle_beta   90.00000000
_cell_angle_gamma   90.00000000
_symmetry_Int_Tables_number   1
_chemical_formula_structural   CuB(CN)4
_chemical_formula_sum   'Cu1 B1 C4 N4'
_cell_volume   159.72719205
_cell_formula_units_Z   1
loop_
 _symmetry_equiv_pos_site_id
 _symmetry_equiv_pos_as_xyz
  1  'x, y, z'
loop_
 _atom_site_type_symbol
 _atom_site_label
 _atom_site_symmetry_multiplicity
 _atom_site_fract_x
 _atom_site_fract_y
 _atom_site_fract_z
 _atom_site_occupancy
  Cu  Cu0  1  0.500000  0.500000  0.500000  1
  B  B1  1  0.000000  0.000000  0.000000  1
  C  C2  1  0.831116  0.168884  0.168884  1
  C  C3  1  0.831116  0.831116  0.831116  1
  C  C4  1  0.168884  0.168884  0.831116  1
  C  C5  1  0.168884  0.831116  0.168884  1
  N  N6  1  0.707215  0.707215  0.707215  1
  N  N7  1  0.707215  0.292785  0.292785  1
  N  N8  1  0.292785  0.292785  0.707215  1
  N  N9  1  0.292785  0.707215  0.292785  1
