# generated using pymatgen
data_NaGe2N3
_symmetry_space_group_name_H-M   'P 1'
_cell_length_a   5.77263304
_cell_length_b   5.77263304
_cell_length_c   5.18649700
_cell_angle_alpha   90.00000000
_cell_angle_beta   90.00000000
_cell_angle_gamma   119.16635426
_symmetry_Int_Tables_number   1
_chemical_formula_structural   NaGe2N3
_chemical_formula_sum   'Na2 Ge4 N6'
_cell_volume   150.91761858
_cell_formula_units_Z   2
loop_
 _symmetry_equiv_pos_site_id
 _symmetry_equiv_pos_as_xyz
  1  'x, y, z'
loop_
 _atom_site_type_symbol
 _atom_site_label
 _atom_site_symmetry_multiplicity
 _atom_site_fract_x
 _atom_site_fract_y
 _atom_site_fract_z
 _atom_site_occupancy
  Na  Na0  1  0.338692  0.338692  0.504713  1
  Na  Na1  1  0.661308  0.661308  0.004713  1
  Ge  Ge2  1  0.988317  0.324128  0.975537  1
  Ge  Ge3  1  0.011683  0.675872  0.475537  1
  Ge  Ge4  1  0.675872  0.011683  0.475537  1
  Ge  Ge5  1  0.324128  0.988317  0.975537  1
  N  N6  1  0.257964  0.257964  0.045654  1
  N  N7  1  0.742036  0.742036  0.545654  1
  N  N8  1  0.341340  0.923956  0.620279  1
  N  N9  1  0.923956  0.341340  0.620279  1
  N  N10  1  0.076044  0.658660  0.120279  1
  N  N11  1  0.658660  0.076044  0.120279  1
