# generated using pymatgen
data_S(ClO)2
_symmetry_space_group_name_H-M   'P 1'
_cell_length_a   9.87093945
_cell_length_b   8.70895147
_cell_length_c   6.18914739
_cell_angle_alpha   81.07963665
_cell_angle_beta   60.64634043
_cell_angle_gamma   38.27402292
_symmetry_Int_Tables_number   1
_chemical_formula_structural   S(ClO)2
_chemical_formula_sum   'S2 Cl4 O4'
_cell_volume   259.94055684
_cell_formula_units_Z   2
loop_
 _symmetry_equiv_pos_site_id
 _symmetry_equiv_pos_as_xyz
  1  'x, y, z'
loop_
 _atom_site_type_symbol
 _atom_site_label
 _atom_site_symmetry_multiplicity
 _atom_site_fract_x
 _atom_site_fract_y
 _atom_site_fract_z
 _atom_site_occupancy
  S  S0  1  0.749893  0.250107  0.250107  1
  S  S1  1  0.999893  0.500107  0.500107  1
  Cl  Cl2  1  0.802536  0.108748  0.943655  1
  Cl  Cl3  1  0.141252  0.447464  0.104939  1
  Cl  Cl4  1  0.306345  0.104939  0.447464  1
  Cl  Cl5  1  0.145061  0.943655  0.108748  1
  O  O6  1  0.644964  0.490260  0.248710  1
  O  O7  1  0.759740  0.605036  0.633933  1
  O  O8  1  0.616067  0.248710  0.490260  1
  O  O9  1  0.001290  0.633933  0.605036  1
