# generated using pymatgen
data_CoO
_symmetry_space_group_name_H-M   'P 1'
_cell_length_a   4.59788059
_cell_length_b   4.59790365
_cell_length_c   5.62464534
_cell_angle_alpha   113.98280965
_cell_angle_beta   66.01816390
_cell_angle_gamma   89.87342398
_symmetry_Int_Tables_number   1
_chemical_formula_structural   CoO
_chemical_formula_sum   'Co4 O4'
_cell_volume   97.24749745
_cell_formula_units_Z   4
loop_
 _symmetry_equiv_pos_site_id
 _symmetry_equiv_pos_as_xyz
  1  'x, y, z'
loop_
 _atom_site_type_symbol
 _atom_site_label
 _atom_site_symmetry_multiplicity
 _atom_site_fract_x
 _atom_site_fract_y
 _atom_site_fract_z
 _atom_site_occupancy
  Co  Co0  1  0.000071  0.999777  0.000147  1
  Co  Co1  1  0.250225  0.249929  0.500149  1
  Co  Co2  1  0.500079  0.499773  0.000143  1
  Co  Co3  1  0.750230  0.749920  0.500144  1
  O  O4  1  0.874813  0.125130  0.749856  1
  O  O5  1  0.124865  0.375187  0.249854  1
  O  O6  1  0.374846  0.625133  0.749855  1
  O  O7  1  0.624873  0.875152  0.249853  1
