# generated using pymatgen
data_Zr3GeO8
_symmetry_space_group_name_H-M   'P 1'
_cell_length_a   6.41236974
_cell_length_b   6.41236974
_cell_length_c   6.41236974
_cell_angle_alpha   133.40036990
_cell_angle_beta   133.40036990
_cell_angle_gamma   68.02608705
_symmetry_Int_Tables_number   1
_chemical_formula_structural   Zr3GeO8
_chemical_formula_sum   'Zr3 Ge1 O8'
_cell_volume   136.77589340
_cell_formula_units_Z   1
loop_
 _symmetry_equiv_pos_site_id
 _symmetry_equiv_pos_as_xyz
  1  'x, y, z'
loop_
 _atom_site_type_symbol
 _atom_site_label
 _atom_site_symmetry_multiplicity
 _atom_site_fract_x
 _atom_site_fract_y
 _atom_site_fract_z
 _atom_site_occupancy
  Zr  Zr0  1  0.750000  0.250000  0.500000  1
  Zr  Zr1  1  0.250000  0.750000  0.500000  1
  Zr  Zr2  1  0.500000  0.500000  0.000000  1
  Ge  Ge3  1  0.000000  0.000000  0.000000  1
  O  O4  1  0.875053  0.302198  0.000000  1
  O  O5  1  0.697802  0.697802  0.572856  1
  O  O6  1  0.124947  0.124947  0.427144  1
  O  O7  1  0.302198  0.875053  0.000000  1
  O  O8  1  0.535915  0.144350  0.000000  1
  O  O9  1  0.855650  0.855650  0.391565  1
  O  O10  1  0.464085  0.464085  0.608435  1
  O  O11  1  0.144350  0.535915  0.000000  1
