# generated using pymatgen
data_KMnPH2O5
_symmetry_space_group_name_H-M   'P 1'
_cell_length_a   7.57882163
_cell_length_b   7.57552010
_cell_length_c   9.82198348
_cell_angle_alpha   70.94888752
_cell_angle_beta   70.91164623
_cell_angle_gamma   98.87216428
_symmetry_Int_Tables_number   1
_chemical_formula_structural   KMnPH2O5
_chemical_formula_sum   'K4 Mn4 P4 H8 O20'
_cell_volume   481.74151730
_cell_formula_units_Z   4
loop_
 _symmetry_equiv_pos_site_id
 _symmetry_equiv_pos_as_xyz
  1  'x, y, z'
loop_
 _atom_site_type_symbol
 _atom_site_label
 _atom_site_symmetry_multiplicity
 _atom_site_fract_x
 _atom_site_fract_y
 _atom_site_fract_z
 _atom_site_occupancy
  K  K0  1  0.205256  0.705292  0.464620  1
  K  K1  1  0.705258  0.205309  0.464615  1
  K  K2  1  0.169863  0.169903  0.535700  1
  K  K3  1  0.669862  0.669903  0.535713  1
  Mn  Mn4  1  0.481745  0.981450  0.019069  1
  Mn  Mn5  1  0.001083  0.000993  0.980721  1
  Mn  Mn6  1  0.981657  0.481423  0.019073  1
  Mn  Mn7  1  0.501018  0.500992  0.980643  1
  P  P8  1  0.316498  0.816524  0.782737  1
  P  P9  1  0.816477  0.316528  0.782726  1
  P  P10  1  0.099335  0.099308  0.217200  1
  P  P11  1  0.599239  0.599333  0.217216  1
  H  H12  1  0.679625  0.043252  0.201899  1
  H  H13  1  0.179601  0.543257  0.201891  1
  H  H14  1  0.245365  0.381789  0.798363  1
  H  H15  1  0.745327  0.881763  0.798384  1
  H  H16  1  0.543384  0.179709  0.201901  1
  H  H17  1  0.043365  0.679687  0.201882  1
  H  H18  1  0.881618  0.745236  0.798387  1
  H  H19  1  0.381640  0.245239  0.798379  1
  O  O20  1  0.545075  0.045078  0.214832  1
  O  O21  1  0.045037  0.545073  0.214813  1
  O  O22  1  0.760683  0.760720  0.784579  1
  O  O23  1  0.260698  0.260730  0.784571  1
  O  O24  1  0.270939  0.271170  0.180790  1
  O  O25  1  0.770951  0.771169  0.180693  1
  O  O26  1  0.952308  0.452433  0.818153  1
  O  O27  1  0.452370  0.952386  0.818180  1
  O  O28  1  0.985157  0.985237  0.395309  1
  O  O29  1  0.485171  0.485282  0.395336  1
  O  O30  1  0.380299  0.880325  0.604588  1
  O  O31  1  0.880297  0.380315  0.604581  1
  O  O32  1  0.178001  0.960537  0.136347  1
  O  O33  1  0.677718  0.460654  0.136256  1
  O  O34  1  0.096843  0.813611  0.864381  1
  O  O35  1  0.596831  0.313609  0.864377  1
  O  O36  1  0.460520  0.677579  0.136262  1
  O  O37  1  0.960548  0.177470  0.136246  1
  O  O38  1  0.313674  0.596854  0.864302  1
  O  O39  1  0.813663  0.096873  0.864284  1
