# generated using pymatgen
data_Mo(PO4)2
_symmetry_space_group_name_H-M   'P 1'
_cell_length_a   5.24519400
_cell_length_b   10.98821400
_cell_length_c   11.49466200
_cell_angle_alpha   90.00000000
_cell_angle_beta   90.00000000
_cell_angle_gamma   90.00000000
_symmetry_Int_Tables_number   1
_chemical_formula_structural   Mo(PO4)2
_chemical_formula_sum   'Mo4 P8 O32'
_cell_volume   662.49845534
_cell_formula_units_Z   4
loop_
 _symmetry_equiv_pos_site_id
 _symmetry_equiv_pos_as_xyz
  1  'x, y, z'
loop_
 _atom_site_type_symbol
 _atom_site_label
 _atom_site_symmetry_multiplicity
 _atom_site_fract_x
 _atom_site_fract_y
 _atom_site_fract_z
 _atom_site_occupancy
  Mo  Mo0  1  0.747895  0.093413  0.846244  1
  Mo  Mo1  1  0.252105  0.593413  0.653756  1
  Mo  Mo2  1  0.752105  0.906587  0.346244  1
  Mo  Mo3  1  0.247895  0.406587  0.153756  1
  P  P4  1  0.749127  0.594527  0.462156  1
  P  P5  1  0.249127  0.905473  0.537844  1
  P  P6  1  0.248683  0.137907  0.665220  1
  P  P7  1  0.751317  0.637907  0.834780  1
  P  P8  1  0.250873  0.094527  0.037844  1
  P  P9  1  0.251317  0.862093  0.165220  1
  P  P10  1  0.750873  0.405473  0.962156  1
  P  P11  1  0.748683  0.362093  0.334780  1
  O  O12  1  0.256148  0.205716  0.556018  1
  O  O13  1  0.493557  0.058091  0.970069  1
  O  O14  1  0.015300  0.058995  0.964490  1
  O  O15  1  0.743852  0.705716  0.943982  1
  O  O16  1  0.993557  0.441909  0.029931  1
  O  O17  1  0.515300  0.441005  0.035510  1
  O  O18  1  0.243852  0.794284  0.056018  1
  O  O19  1  0.249529  0.223975  0.077981  1
  O  O20  1  0.245998  0.010244  0.150999  1
  O  O21  1  0.244634  0.547764  0.212129  1
  O  O22  1  0.490661  0.841216  0.245227  1
  O  O23  1  0.977129  0.340260  0.248054  1
  O  O24  1  0.022871  0.840260  0.251946  1
  O  O25  1  0.509339  0.341216  0.254773  1
  O  O26  1  0.755366  0.047764  0.287871  1
  O  O27  1  0.754002  0.510244  0.349001  1
  O  O28  1  0.750471  0.723975  0.422019  1
  O  O29  1  0.756148  0.294284  0.443982  1
  O  O30  1  0.484700  0.941005  0.464490  1
  O  O31  1  0.745998  0.489756  0.849001  1
  O  O32  1  0.506443  0.558091  0.529931  1
  O  O33  1  0.984700  0.558995  0.535510  1
  O  O34  1  0.006443  0.941909  0.470069  1
  O  O35  1  0.250471  0.776025  0.577981  1
  O  O36  1  0.254002  0.989756  0.650999  1
  O  O37  1  0.255366  0.452236  0.712129  1
  O  O38  1  0.009339  0.158784  0.745227  1
  O  O39  1  0.522871  0.659740  0.748054  1
  O  O40  1  0.477129  0.159740  0.751946  1
  O  O41  1  0.990661  0.658784  0.754773  1
  O  O42  1  0.744634  0.952236  0.787871  1
  O  O43  1  0.749529  0.276025  0.922019  1
