# generated using pymatgen
data_CsB3H8
_symmetry_space_group_name_H-M   'P 1'
_cell_length_a   5.75552674
_cell_length_b   5.75552674
_cell_length_c   9.12136700
_cell_angle_alpha   90.00000000
_cell_angle_beta   90.00000000
_cell_angle_gamma   98.76869768
_symmetry_Int_Tables_number   1
_chemical_formula_structural   CsB3H8
_chemical_formula_sum   'Cs2 B6 H16'
_cell_volume   298.62356045
_cell_formula_units_Z   2
loop_
 _symmetry_equiv_pos_site_id
 _symmetry_equiv_pos_as_xyz
  1  'x, y, z'
loop_
 _atom_site_type_symbol
 _atom_site_label
 _atom_site_symmetry_multiplicity
 _atom_site_fract_x
 _atom_site_fract_y
 _atom_site_fract_z
 _atom_site_occupancy
  Cs  Cs0  1  0.322078  0.677922  0.750000  1
  Cs  Cs1  1  0.677922  0.322078  0.250000  1
  B  B2  1  0.897393  0.102607  0.750000  1
  B  B3  1  0.102607  0.897393  0.250000  1
  B  B4  1  0.722372  0.277628  0.651257  1
  B  B5  1  0.277628  0.722372  0.348743  1
  B  B6  1  0.722372  0.277628  0.848743  1
  B  B7  1  0.277628  0.722372  0.151257  1
  H  H8  1  0.854835  0.145165  0.905787  1
  H  H9  1  0.145165  0.854835  0.094213  1
  H  H10  1  0.854835  0.145165  0.594213  1
  H  H11  1  0.145165  0.854835  0.405787  1
  H  H12  1  0.107850  0.163078  0.750000  1
  H  H13  1  0.163078  0.107850  0.250000  1
  H  H14  1  0.836922  0.892150  0.750000  1
  H  H15  1  0.892150  0.836922  0.250000  1
  H  H16  1  0.468746  0.795788  0.394447  1
  H  H17  1  0.795788  0.468746  0.605553  1
  H  H18  1  0.468746  0.795788  0.105553  1
  H  H19  1  0.795788  0.468746  0.894447  1
  H  H20  1  0.204212  0.531254  0.394447  1
  H  H21  1  0.531254  0.204212  0.605553  1
  H  H22  1  0.204212  0.531254  0.105553  1
  H  H23  1  0.531254  0.204212  0.894447  1
