# generated using pymatgen
data_H5N2F
_symmetry_space_group_name_H-M   'P 1'
_cell_length_a   4.64385000
_cell_length_b   8.33868900
_cell_length_c   12.19195600
_cell_angle_alpha   90.00000000
_cell_angle_beta   90.00000000
_cell_angle_gamma   90.00000000
_symmetry_Int_Tables_number   1
_chemical_formula_structural   H5N2F
_chemical_formula_sum   'H40 N16 F8'
_cell_volume   472.11668233
_cell_formula_units_Z   8
loop_
 _symmetry_equiv_pos_site_id
 _symmetry_equiv_pos_as_xyz
  1  'x, y, z'
loop_
 _atom_site_type_symbol
 _atom_site_label
 _atom_site_symmetry_multiplicity
 _atom_site_fract_x
 _atom_site_fract_y
 _atom_site_fract_z
 _atom_site_occupancy
  H  H0  1  0.765206  0.558204  0.505077  1
  H  H1  1  0.265206  0.941796  0.494923  1
  H  H2  1  0.234794  0.058204  0.994923  1
  H  H3  1  0.734794  0.441796  0.005077  1
  H  H4  1  0.794343  0.378555  0.570130  1
  H  H5  1  0.294343  0.121445  0.429870  1
  H  H6  1  0.205657  0.878555  0.929870  1
  H  H7  1  0.705657  0.621445  0.070130  1
  H  H8  1  0.225984  0.452139  0.643614  1
  H  H9  1  0.725984  0.047861  0.356386  1
  H  H10  1  0.774016  0.952139  0.856386  1
  H  H11  1  0.274016  0.547861  0.143614  1
  H  H12  1  0.231306  0.464228  0.501346  1
  H  H13  1  0.731306  0.035772  0.498654  1
  H  H14  1  0.768694  0.964228  0.998654  1
  H  H15  1  0.901587  0.833486  0.690886  1
  H  H16  1  0.268694  0.535772  0.001346  1
  H  H17  1  0.697018  0.859415  0.417308  1
  H  H18  1  0.802982  0.140585  0.917308  1
  H  H19  1  0.302982  0.359415  0.082692  1
  H  H20  1  0.539254  0.834097  0.692766  1
  H  H21  1  0.039254  0.665903  0.307234  1
  H  H22  1  0.460746  0.334097  0.807234  1
  H  H23  1  0.960746  0.165903  0.192766  1
  H  H24  1  0.593718  0.355955  0.331729  1
  H  H25  1  0.093718  0.144045  0.668271  1
  H  H26  1  0.406282  0.855955  0.168271  1
  H  H27  1  0.906282  0.644045  0.831729  1
  H  H28  1  0.969952  0.356202  0.328004  1
  H  H29  1  0.469952  0.143798  0.671996  1
  H  H30  1  0.030048  0.856202  0.171996  1
  H  H31  1  0.530048  0.643798  0.828004  1
  H  H32  1  0.767759  0.419652  0.214732  1
  H  H33  1  0.267759  0.080348  0.785268  1
  H  H34  1  0.232241  0.919652  0.285268  1
  H  H35  1  0.732241  0.580348  0.714732  1
  H  H36  1  0.598413  0.166514  0.190886  1
  H  H37  1  0.098413  0.333486  0.809114  1
  H  H38  1  0.401587  0.666514  0.309114  1
  H  H39  1  0.197018  0.640585  0.582692  1
  N  N40  1  0.835789  0.500072  0.575815  1
  N  N41  1  0.335789  0.999928  0.424185  1
  N  N42  1  0.164211  0.000072  0.924185  1
  N  N43  1  0.664211  0.499928  0.075815  1
  N  N44  1  0.147413  0.516069  0.573829  1
  N  N45  1  0.647413  0.983931  0.426171  1
  N  N46  1  0.852587  0.016069  0.926171  1
  N  N47  1  0.352587  0.483931  0.073829  1
  N  N48  1  0.722190  0.824206  0.741810  1
  N  N49  1  0.222190  0.675794  0.258190  1
  N  N50  1  0.277810  0.324206  0.758190  1
  N  N51  1  0.777810  0.175794  0.241810  1
  N  N52  1  0.721164  0.660209  0.782060  1
  N  N53  1  0.221164  0.839791  0.217940  1
  N  N54  1  0.278836  0.160209  0.717940  1
  N  N55  1  0.778836  0.339791  0.282060  1
  F  F56  1  0.225395  0.823400  0.613707  1
  F  F57  1  0.725395  0.676600  0.386293  1
  F  F58  1  0.774605  0.323400  0.886293  1
  F  F59  1  0.274605  0.176600  0.113707  1
  F  F60  1  0.218706  0.650804  0.894190  1
  F  F61  1  0.718706  0.849196  0.105810  1
  F  F62  1  0.781294  0.150804  0.605810  1
  F  F63  1  0.281294  0.349196  0.394190  1
