# generated using pymatgen
data_RbP(HO2)2
_symmetry_space_group_name_H-M   'P 1'
_cell_length_a   7.79098956
_cell_length_b   6.65356087
_cell_length_c   6.60119496
_cell_angle_alpha   71.99919188
_cell_angle_beta   54.31196333
_cell_angle_gamma   53.68884479
_symmetry_Int_Tables_number   1
_chemical_formula_structural   RbP(HO2)2
_chemical_formula_sum   'Rb2 P2 H4 O8'
_cell_volume   223.61235903
_cell_formula_units_Z   2
loop_
 _symmetry_equiv_pos_site_id
 _symmetry_equiv_pos_as_xyz
  1  'x, y, z'
loop_
 _atom_site_type_symbol
 _atom_site_label
 _atom_site_symmetry_multiplicity
 _atom_site_fract_x
 _atom_site_fract_y
 _atom_site_fract_z
 _atom_site_occupancy
  Rb  Rb0  1  0.733920  0.766080  0.766080  1
  Rb  Rb1  1  0.483920  0.516080  0.516080  1
  P  P2  1  0.251119  0.248881  0.248881  1
  P  P3  1  0.001119  0.998881  0.998881  1
  H  H4  1  0.251069  0.602875  0.160117  1
  H  H5  1  0.985939  0.160117  0.602875  1
  H  H6  1  0.647125  0.998931  0.264061  1
  H  H7  1  0.089883  0.264061  0.998931  1
  O  O8  1  0.956285  0.267101  0.992900  1
  O  O9  1  0.783715  0.992900  0.267101  1
  O  O10  1  0.982899  0.293715  0.466285  1
  O  O11  1  0.257100  0.466285  0.293715  1
  O  O12  1  0.251884  0.796823  0.978623  1
  O  O13  1  0.972670  0.978623  0.796823  1
  O  O14  1  0.453177  0.998116  0.277330  1
  O  O15  1  0.271377  0.277330  0.998116  1
