# generated using pymatgen
data_Na5MnO4
_symmetry_space_group_name_H-M   'P 1'
_cell_length_a   5.88600200
_cell_length_b   12.14504100
_cell_length_c   7.88226800
_cell_angle_alpha   90.00000000
_cell_angle_beta   90.00000000
_cell_angle_gamma   90.00000000
_symmetry_Int_Tables_number   1
_chemical_formula_structural   Na5MnO4
_chemical_formula_sum   'Na20 Mn4 O16'
_cell_volume   563.46972630
_cell_formula_units_Z   4
loop_
 _symmetry_equiv_pos_site_id
 _symmetry_equiv_pos_as_xyz
  1  'x, y, z'
loop_
 _atom_site_type_symbol
 _atom_site_label
 _atom_site_symmetry_multiplicity
 _atom_site_fract_x
 _atom_site_fract_y
 _atom_site_fract_z
 _atom_site_occupancy
  Na  Na0  1  0.238618  0.338809  0.500000  1
  Na  Na1  1  0.238618  0.838809  0.500000  1
  Na  Na2  1  0.738618  0.161191  0.000000  1
  Na  Na3  1  0.738618  0.661191  0.000000  1
  Na  Na4  1  0.747193  0.303535  0.301170  1
  Na  Na5  1  0.747193  0.803535  0.301170  1
  Na  Na6  1  0.247193  0.196465  0.801170  1
  Na  Na7  1  0.247193  0.696465  0.801170  1
  Na  Na8  1  0.747193  0.303535  0.698830  1
  Na  Na9  1  0.747193  0.803535  0.698830  1
  Na  Na10  1  0.247193  0.196465  0.198830  1
  Na  Na11  1  0.247193  0.696465  0.198830  1
  Na  Na12  1  0.435681  0.464290  0.821134  1
  Na  Na13  1  0.435681  0.964290  0.821134  1
  Na  Na14  1  0.435681  0.464290  0.178866  1
  Na  Na15  1  0.435681  0.964290  0.178866  1
  Na  Na16  1  0.935681  0.035710  0.321134  1
  Na  Na17  1  0.935681  0.535710  0.321134  1
  Na  Na18  1  0.935681  0.035710  0.678866  1
  Na  Na19  1  0.935681  0.535710  0.678866  1
  Mn  Mn20  1  0.495136  0.586541  0.500000  1
  Mn  Mn21  1  0.995136  0.913459  0.000000  1
  Mn  Mn22  1  0.495136  0.086541  0.500000  1
  Mn  Mn23  1  0.995136  0.413459  0.000000  1
  O  O24  1  0.614985  0.436596  0.500000  1
  O  O25  1  0.614985  0.936596  0.500000  1
  O  O26  1  0.114985  0.063404  0.000000  1
  O  O27  1  0.114985  0.563404  0.000000  1
  O  O28  1  0.188601  0.142341  0.500000  1
  O  O29  1  0.188601  0.642341  0.500000  1
  O  O30  1  0.688601  0.357659  0.000000  1
  O  O31  1  0.688601  0.857659  0.000000  1
  O  O32  1  0.594756  0.129040  0.274897  1
  O  O33  1  0.594756  0.629040  0.274897  1
  O  O34  1  0.094756  0.370960  0.225103  1
  O  O35  1  0.094756  0.870960  0.225103  1
  O  O36  1  0.094756  0.370960  0.774897  1
  O  O37  1  0.094756  0.870960  0.774897  1
  O  O38  1  0.594756  0.129040  0.725103  1
  O  O39  1  0.594756  0.629040  0.725103  1
