# generated using pymatgen
data_IF7
_symmetry_space_group_name_H-M   'P 1'
_cell_length_a   5.58370294
_cell_length_b   5.58370294
_cell_length_c   9.78797400
_cell_angle_alpha   90.00000000
_cell_angle_beta   90.00000000
_cell_angle_gamma   104.61603724
_symmetry_Int_Tables_number   1
_chemical_formula_structural   IF7
_chemical_formula_sum   'I2 F14'
_cell_volume   295.29125934
_cell_formula_units_Z   2
loop_
 _symmetry_equiv_pos_site_id
 _symmetry_equiv_pos_as_xyz
  1  'x, y, z'
loop_
 _atom_site_type_symbol
 _atom_site_label
 _atom_site_symmetry_multiplicity
 _atom_site_fract_x
 _atom_site_fract_y
 _atom_site_fract_z
 _atom_site_occupancy
  I  I0  1  0.365969  0.365969  0.000000  1
  I  I1  1  0.865969  0.865969  0.500000  1
  F  F2  1  0.179925  0.383925  0.160605  1
  F  F3  1  0.177803  0.004523  0.583705  1
  F  F4  1  0.677803  0.504523  0.916295  1
  F  F5  1  0.690265  0.038565  0.604599  1
  F  F6  1  0.038565  0.690265  0.395401  1
  F  F7  1  0.538565  0.190265  0.104599  1
  F  F8  1  0.190265  0.538565  0.895401  1
  F  F9  1  0.883925  0.679925  0.660605  1
  F  F10  1  0.087224  0.087224  0.000000  1
  F  F11  1  0.504523  0.677803  0.083705  1
  F  F12  1  0.587224  0.587224  0.500000  1
  F  F13  1  0.679925  0.883925  0.339395  1
  F  F14  1  0.383925  0.179925  0.839395  1
  F  F15  1  0.004523  0.177803  0.416295  1
