# generated using pymatgen
data_KInP2S7
_symmetry_space_group_name_H-M   'P 1'
_cell_length_a   6.75797018
_cell_length_b   6.75797018
_cell_length_c   6.52557194
_cell_angle_alpha   84.12245043
_cell_angle_beta   84.12245043
_cell_angle_gamma   97.82257425
_symmetry_Int_Tables_number   1
_chemical_formula_structural   KInP2S7
_chemical_formula_sum   'K1 In1 P2 S7'
_cell_volume   291.64469582
_cell_formula_units_Z   1
loop_
 _symmetry_equiv_pos_site_id
 _symmetry_equiv_pos_as_xyz
  1  'x, y, z'
loop_
 _atom_site_type_symbol
 _atom_site_label
 _atom_site_symmetry_multiplicity
 _atom_site_fract_x
 _atom_site_fract_y
 _atom_site_fract_z
 _atom_site_occupancy
  K  K0  1  0.083148  0.916852  0.500000  1
  In  In1  1  0.498926  0.501074  0.000000  1
  P  P2  1  0.638316  0.961700  0.086671  1
  P  P3  1  0.038300  0.361684  0.913329  1
  S  S4  1  0.959433  0.040567  0.000000  1
  S  S5  1  0.826260  0.472499  0.752753  1
  S  S6  1  0.630745  0.711340  0.291882  1
  S  S7  1  0.288660  0.369255  0.708118  1
  S  S8  1  0.513840  0.886630  0.830951  1
  S  S9  1  0.113370  0.486160  0.169049  1
  S  S10  1  0.527501  0.173740  0.247247  1
