# generated using pymatgen
data_FeBiO3
_symmetry_space_group_name_H-M   'P 1'
_cell_length_a   5.61564328
_cell_length_b   5.61562901
_cell_length_c   5.70514013
_cell_angle_alpha   60.51083391
_cell_angle_beta   119.48936365
_cell_angle_gamma   120.00101486
_symmetry_Int_Tables_number   1
_chemical_formula_structural   FeBiO3
_chemical_formula_sum   'Fe2 Bi2 O6'
_cell_volume   128.19046441
_cell_formula_units_Z   2
loop_
 _symmetry_equiv_pos_site_id
 _symmetry_equiv_pos_as_xyz
  1  'x, y, z'
loop_
 _atom_site_type_symbol
 _atom_site_label
 _atom_site_symmetry_multiplicity
 _atom_site_fract_x
 _atom_site_fract_y
 _atom_site_fract_z
 _atom_site_occupancy
  Fe  Fe0  1  0.219028  0.780969  0.657065  1
  Fe  Fe1  1  0.719032  0.280970  0.157070  1
  Bi  Bi2  1  0.498595  0.501425  0.495716  1
  Bi  Bi3  1  0.998575  0.001404  0.995717  1
  O  O4  1  0.436045  0.111857  0.359395  1
  O  O5  1  0.035218  0.563986  0.359413  1
  O  O6  1  0.888122  0.964774  0.359409  1
  O  O7  1  0.388142  0.063955  0.859394  1
  O  O8  1  0.535228  0.611880  0.859409  1
  O  O9  1  0.936013  0.464780  0.859414  1
