# generated using pymatgen
data_VRe2O9
_symmetry_space_group_name_H-M   'P 1'
_cell_length_a   8.14202798
_cell_length_b   8.14202798
_cell_length_c   9.17985200
_cell_angle_alpha   90.00000000
_cell_angle_beta   90.00000000
_cell_angle_gamma   138.78408524
_symmetry_Int_Tables_number   1
_chemical_formula_structural   VRe2O9
_chemical_formula_sum   'V2 Re4 O18'
_cell_volume   400.97688028
_cell_formula_units_Z   2
loop_
 _symmetry_equiv_pos_site_id
 _symmetry_equiv_pos_as_xyz
  1  'x, y, z'
loop_
 _atom_site_type_symbol
 _atom_site_label
 _atom_site_symmetry_multiplicity
 _atom_site_fract_x
 _atom_site_fract_y
 _atom_site_fract_z
 _atom_site_occupancy
  V  V0  1  0.880138  0.119862  0.782139  1
  V  V1  1  0.119862  0.880138  0.282139  1
  Re  Re2  1  0.516142  0.483858  0.690109  1
  Re  Re3  1  0.483858  0.516142  0.190109  1
  Re  Re4  1  0.229542  0.770458  0.869604  1
  Re  Re5  1  0.770458  0.229542  0.369604  1
  O  O6  1  0.930788  0.069212  0.933798  1
  O  O7  1  0.069212  0.930788  0.433798  1
  O  O8  1  0.573575  0.426425  0.852257  1
  O  O9  1  0.426425  0.573575  0.352257  1
  O  O10  1  0.590811  0.409189  0.547820  1
  O  O11  1  0.409189  0.590811  0.047820  1
  O  O12  1  0.966407  0.545439  0.325667  1
  O  O13  1  0.033593  0.454561  0.825667  1
  O  O14  1  0.454561  0.033593  0.325667  1
  O  O15  1  0.545439  0.966407  0.825667  1
  O  O16  1  0.801355  0.198645  0.552904  1
  O  O17  1  0.198645  0.801355  0.052904  1
  O  O18  1  0.863641  0.136359  0.263197  1
  O  O19  1  0.136359  0.863641  0.763197  1
  O  O20  1  0.805004  0.701841  0.179904  1
  O  O21  1  0.194996  0.298159  0.679904  1
  O  O22  1  0.298159  0.194996  0.179904  1
  O  O23  1  0.701841  0.805004  0.679904  1
