# generated using pymatgen
data_RbFe(SeO4)2
_symmetry_space_group_name_H-M   'P 1'
_cell_length_a   9.11341300
_cell_length_b   10.32836960
_cell_length_c   10.32836909
_cell_angle_alpha   61.25463165
_cell_angle_beta   90.00125199
_cell_angle_gamma   90.00117472
_symmetry_Int_Tables_number   1
_chemical_formula_structural   RbFe(SeO4)2
_chemical_formula_sum   'Rb4 Fe4 Se8 O32'
_cell_volume   852.36987195
_cell_formula_units_Z   4
loop_
 _symmetry_equiv_pos_site_id
 _symmetry_equiv_pos_as_xyz
  1  'x, y, z'
loop_
 _atom_site_type_symbol
 _atom_site_label
 _atom_site_symmetry_multiplicity
 _atom_site_fract_x
 _atom_site_fract_y
 _atom_site_fract_z
 _atom_site_occupancy
  Rb  Rb0  1  0.500008  0.249995  0.750006  1
  Rb  Rb1  1  0.500001  0.749998  0.250000  1
  Rb  Rb2  1  0.000000  0.999995  0.000006  1
  Rb  Rb3  1  0.999998  0.499997  0.500003  1
  Fe  Fe4  1  0.499999  0.999996  0.500003  1
  Fe  Fe5  1  0.000002  0.749981  0.750018  1
  Fe  Fe6  1  0.500001  0.499996  0.000004  1
  Fe  Fe7  1  0.999998  0.249984  0.250018  1
  Se  Se8  1  0.333390  0.853267  0.853281  1
  Se  Se9  1  0.333390  0.353267  0.353281  1
  Se  Se10  1  0.833406  0.603265  0.103287  1
  Se  Se11  1  0.833404  0.103257  0.603294  1
  Se  Se12  1  0.166594  0.396713  0.896735  1
  Se  Se13  1  0.166596  0.896706  0.396744  1
  Se  Se14  1  0.666611  0.146720  0.146733  1
  Se  Se15  1  0.666610  0.646719  0.646733  1
  O  O16  1  0.166654  0.304131  0.804132  1
  O  O17  1  0.166657  0.804130  0.304130  1
  O  O18  1  0.666651  0.054133  0.054131  1
  O  O19  1  0.666653  0.554134  0.554131  1
  O  O20  1  0.333348  0.945870  0.945866  1
  O  O21  1  0.333348  0.445869  0.445867  1
  O  O22  1  0.833343  0.695867  0.195870  1
  O  O23  1  0.833342  0.195870  0.695870  1
  O  O24  1  0.457463  0.929914  0.716577  1
  O  O25  1  0.457461  0.429917  0.216574  1
  O  O26  1  0.957444  0.679913  0.966557  1
  O  O27  1  0.957442  0.179915  0.466558  1
  O  O28  1  0.164639  0.862974  0.783477  1
  O  O29  1  0.164640  0.362972  0.283478  1
  O  O30  1  0.664630  0.613002  0.033494  1
  O  O31  1  0.664634  0.112999  0.533496  1
  O  O32  1  0.377967  0.676828  0.969639  1
  O  O33  1  0.377968  0.176825  0.469645  1
  O  O34  1  0.877945  0.426823  0.219630  1
  O  O35  1  0.877946  0.926821  0.719632  1
  O  O36  1  0.042556  0.533442  0.820087  1
  O  O37  1  0.042558  0.033444  0.320084  1
  O  O38  1  0.542537  0.283426  0.070082  1
  O  O39  1  0.542536  0.783422  0.570087  1
  O  O40  1  0.122054  0.280370  0.073178  1
  O  O41  1  0.122053  0.780367  0.573179  1
  O  O42  1  0.622033  0.030354  0.323174  1
  O  O43  1  0.622032  0.530359  0.823171  1
  O  O44  1  0.335370  0.466505  0.887002  1
  O  O45  1  0.335365  0.966504  0.387001  1
  O  O46  1  0.835360  0.216522  0.137028  1
  O  O47  1  0.835361  0.716518  0.637031  1
