# generated using pymatgen
data_Cr(PO3)3
_symmetry_space_group_name_H-M   'P 1'
_cell_length_a   6.59421908
_cell_length_b   6.59421908
_cell_length_c   9.62378765
_cell_angle_alpha   89.80198608
_cell_angle_beta   89.80198608
_cell_angle_gamma   60.02589593
_symmetry_Int_Tables_number   1
_chemical_formula_structural   Cr(PO3)3
_chemical_formula_sum   'Cr2 P6 O18'
_cell_volume   362.50434407
_cell_formula_units_Z   2
loop_
 _symmetry_equiv_pos_site_id
 _symmetry_equiv_pos_as_xyz
  1  'x, y, z'
loop_
 _atom_site_type_symbol
 _atom_site_label
 _atom_site_symmetry_multiplicity
 _atom_site_fract_x
 _atom_site_fract_y
 _atom_site_fract_z
 _atom_site_occupancy
  Cr  Cr0  1  0.335700  0.332708  0.499942  1
  Cr  Cr1  1  0.332708  0.335700  0.999942  1
  P  P2  1  0.066362  0.713302  0.749878  1
  P  P3  1  0.223180  0.065853  0.751996  1
  P  P4  1  0.713889  0.222482  0.747909  1
  P  P5  1  0.713302  0.066362  0.249878  1
  P  P6  1  0.065853  0.223180  0.251996  1
  P  P7  1  0.222482  0.713889  0.247909  1
  O  O8  1  0.814138  0.943852  0.748331  1
  O  O9  1  0.244904  0.813456  0.750763  1
  O  O10  1  0.590402  0.326524  0.613248  1
  O  O11  1  0.582365  0.327538  0.880239  1
  O  O12  1  0.586386  0.086266  0.383507  1
  O  O13  1  0.327538  0.582365  0.380239  1
  O  O14  1  0.326524  0.590402  0.113248  1
  O  O15  1  0.585174  0.092183  0.116514  1
  O  O16  1  0.086266  0.586386  0.883507  1
  O  O17  1  0.092183  0.585174  0.616514  1
  O  O18  1  0.324520  0.088387  0.886648  1
  O  O19  1  0.813456  0.244904  0.250763  1
  O  O20  1  0.943852  0.814138  0.248331  1
  O  O21  1  0.330884  0.089369  0.619615  1
  O  O22  1  0.088387  0.324520  0.386648  1
  O  O23  1  0.089369  0.330884  0.119615  1
  O  O24  1  0.944616  0.244099  0.750492  1
  O  O25  1  0.244099  0.944616  0.250492  1
