# generated using pymatgen
data_Mn(SbO3)2
_symmetry_space_group_name_H-M   'P 1'
_cell_length_a   8.94908379
_cell_length_b   9.61240900
_cell_length_c   8.94908800
_cell_angle_alpha   90.00014195
_cell_angle_beta   119.99995397
_cell_angle_gamma   90.00010321
_symmetry_Int_Tables_number   1
_chemical_formula_structural   Mn(SbO3)2
_chemical_formula_sum   'Mn6 Sb12 O36'
_cell_volume   666.68460682
_cell_formula_units_Z   6
loop_
 _symmetry_equiv_pos_site_id
 _symmetry_equiv_pos_as_xyz
  1  'x, y, z'
loop_
 _atom_site_type_symbol
 _atom_site_label
 _atom_site_symmetry_multiplicity
 _atom_site_fract_x
 _atom_site_fract_y
 _atom_site_fract_z
 _atom_site_occupancy
  Mn  Mn0  1  0.633089  0.500003  0.999999  1
  Mn  Mn1  1  0.000001  0.999998  0.633098  1
  Mn  Mn2  1  0.000000  0.499996  0.633099  1
  Mn  Mn3  1  0.366867  0.000002  0.366869  1
  Mn  Mn4  1  0.366870  0.499992  0.366873  1
  Mn  Mn5  1  0.633142  0.000009  0.000004  1
  Sb  Sb6  1  0.000000  0.000002  0.000001  1
  Sb  Sb7  1  0.000000  0.499998  0.000000  1
  Sb  Sb8  1  0.333334  0.245461  0.666667  1
  Sb  Sb9  1  0.333334  0.745461  0.666668  1
  Sb  Sb10  1  0.666667  0.254539  0.333335  1
  Sb  Sb11  1  0.666668  0.754539  0.333335  1
  Sb  Sb12  1  0.305014  0.250000  0.000002  1
  Sb  Sb13  1  0.305012  0.750000  0.000000  1
  Sb  Sb14  1  0.694987  0.250000  0.694987  1
  Sb  Sb15  1  0.694988  0.750000  0.694988  1
  Sb  Sb16  1  0.000001  0.250000  0.305016  1
  Sb  Sb17  1  0.000001  0.750000  0.305015  1
  O  O18  1  0.224624  0.358606  0.779020  1
  O  O19  1  0.224635  0.858598  0.779026  1
  O  O20  1  0.554394  0.358603  0.775375  1
  O  O21  1  0.554392  0.858597  0.775370  1
  O  O22  1  0.220985  0.358606  0.445604  1
  O  O23  1  0.220983  0.858600  0.445607  1
  O  O24  1  0.775376  0.141395  0.554396  1
  O  O25  1  0.775373  0.641397  0.554393  1
  O  O26  1  0.445604  0.141397  0.220984  1
  O  O27  1  0.445608  0.641402  0.220980  1
  O  O28  1  0.779018  0.141397  0.224624  1
  O  O29  1  0.779026  0.641402  0.224636  1
  O  O30  1  0.471972  0.134633  0.589085  1
  O  O31  1  0.471976  0.634637  0.589092  1
  O  O32  1  0.117116  0.134633  0.528027  1
  O  O33  1  0.117116  0.634633  0.528026  1
  O  O34  1  0.410914  0.134633  0.882888  1
  O  O35  1  0.410902  0.634639  0.882881  1
  O  O36  1  0.528026  0.365366  0.117117  1
  O  O37  1  0.528025  0.865361  0.117119  1
  O  O38  1  0.589084  0.365371  0.471974  1
  O  O39  1  0.589086  0.865365  0.471974  1
  O  O40  1  0.882886  0.365369  0.410913  1
  O  O41  1  0.882880  0.865361  0.410903  1
  O  O42  1  0.889789  0.381924  0.103313  1
  O  O43  1  0.889793  0.881922  0.103314  1
  O  O44  1  0.213525  0.381926  0.110219  1
  O  O45  1  0.213524  0.881922  0.110214  1
  O  O46  1  0.896693  0.381926  0.786479  1
  O  O47  1  0.896690  0.881923  0.786483  1
  O  O48  1  0.110216  0.118075  0.213521  1
  O  O49  1  0.110212  0.618078  0.213524  1
  O  O50  1  0.103309  0.118074  0.889790  1
  O  O51  1  0.103314  0.618078  0.889789  1
  O  O52  1  0.786479  0.118076  0.896694  1
  O  O53  1  0.786480  0.618079  0.896688  1
