# generated using pymatgen
data_LiMnPO4
_symmetry_space_group_name_H-M   'P 1'
_cell_length_a   7.37785760
_cell_length_b   6.34937446
_cell_length_c   5.54360030
_cell_angle_alpha   76.34972865
_cell_angle_beta   56.75045098
_cell_angle_gamma   46.89982038
_symmetry_Int_Tables_number   1
_chemical_formula_structural   LiMnPO4
_chemical_formula_sum   'Li2 Mn2 P2 O8'
_cell_volume   154.43164206
_cell_formula_units_Z   2
loop_
 _symmetry_equiv_pos_site_id
 _symmetry_equiv_pos_as_xyz
  1  'x, y, z'
loop_
 _atom_site_type_symbol
 _atom_site_label
 _atom_site_symmetry_multiplicity
 _atom_site_fract_x
 _atom_site_fract_y
 _atom_site_fract_z
 _atom_site_occupancy
  Li  Li0  1  0.315391  0.184609  0.315391  1
  Li  Li1  1  0.065391  0.934609  0.065391  1
  Mn  Mn2  1  0.938044  0.561956  0.938044  1
  Mn  Mn3  1  0.688044  0.311956  0.688044  1
  P  P4  1  0.370613  0.629387  0.370613  1
  P  P5  1  0.620613  0.879387  0.620613  1
  O  O6  1  0.699142  0.455430  0.252405  1
  O  O7  1  0.185855  0.961530  0.363615  1
  O  O8  1  0.288470  0.064145  0.761000  1
  O  O9  1  0.794570  0.550858  0.656976  1
  O  O10  1  0.252405  0.593024  0.699142  1
  O  O11  1  0.363615  0.489000  0.185855  1
  O  O12  1  0.656976  0.997595  0.794570  1
  O  O13  1  0.761000  0.886385  0.288470  1
