# generated using pymatgen
data_H8W3Se(NO6)2
_symmetry_space_group_name_H-M   'P 1'
_cell_length_a   7.34915149
_cell_length_b   7.34915149
_cell_length_c   12.57245846
_cell_angle_alpha   90.00000000
_cell_angle_beta   90.00000000
_cell_angle_gamma   120.00000001
_symmetry_Int_Tables_number   1
_chemical_formula_structural   H8W3Se(NO6)2
_chemical_formula_sum   'H16 W6 Se2 N4 O24'
_cell_volume   588.06487567
_cell_formula_units_Z   2
loop_
 _symmetry_equiv_pos_site_id
 _symmetry_equiv_pos_as_xyz
  1  'x, y, z'
loop_
 _atom_site_type_symbol
 _atom_site_label
 _atom_site_symmetry_multiplicity
 _atom_site_fract_x
 _atom_site_fract_y
 _atom_site_fract_z
 _atom_site_occupancy
  H  H0  1  0.666667  0.333333  0.151703  1
  H  H1  1  0.254824  0.511680  0.149184  1
  H  H2  1  0.743144  0.254824  0.649184  1
  H  H3  1  0.511680  0.256856  0.649184  1
  H  H4  1  0.333334  0.666667  0.651702  1
  H  H5  1  0.666667  0.333333  0.539923  1
  H  H6  1  0.333334  0.666667  0.039924  1
  H  H7  1  0.403213  0.819518  0.762569  1
  H  H8  1  0.583694  0.403212  0.262569  1
  H  H9  1  0.488320  0.743144  0.149184  1
  H  H10  1  0.180483  0.583694  0.762569  1
  H  H11  1  0.416305  0.596787  0.762569  1
  H  H12  1  0.596788  0.180482  0.262569  1
  H  H13  1  0.745176  0.488320  0.649184  1
  H  H14  1  0.256856  0.745176  0.149184  1
  H  H15  1  0.819518  0.416305  0.262569  1
  N  N16  1  0.666667  0.333333  0.234192  1
  N  N17  1  0.333334  0.666667  0.734192  1
  N  N18  1  0.666667  0.333333  0.621448  1
  N  N19  1  0.333334  0.666667  0.121448  1
  O  O20  1  0.204952  0.800151  0.530364  1
  O  O21  1  0.795048  0.199849  0.030364  1
  O  O22  1  0.800151  0.595199  0.030364  1
  O  O23  1  0.595198  0.795048  0.530364  1
  O  O24  1  0.541149  0.084564  0.848470  1
  O  O25  1  0.456585  0.541149  0.348470  1
  O  O26  1  0.199849  0.404801  0.530364  1
  O  O27  1  0.915436  0.456585  0.848470  1
  O  O28  1  0.543416  0.458851  0.848470  1
  O  O29  1  0.458851  0.915435  0.348470  1
  O  O30  1  0.249149  0.127527  0.723865  1
  O  O31  1  0.121621  0.249149  0.223865  1
  O  O32  1  0.127527  0.878379  0.223865  1
  O  O33  1  0.872472  0.121621  0.723865  1
  O  O34  1  0.878378  0.750851  0.723865  1
  O  O35  1  0.750851  0.872473  0.223865  1
  O  O36  1  0.084564  0.543415  0.348470  1
  O  O37  1  0.874594  0.123178  0.404662  1
  O  O38  1  0.751415  0.874593  0.904662  1
  O  O39  1  0.123178  0.248585  0.904662  1
  O  O40  1  0.876821  0.751414  0.404662  1
  O  O41  1  0.248585  0.125406  0.404662  1
  O  O42  1  0.125407  0.876821  0.904662  1
  O  O43  1  0.404801  0.204952  0.030364  1
  Se  Se44  1  0.000000  0.000000  0.665035  1
  Se  Se45  1  0.000000  0.000000  0.165035  1
  W  W46  1  0.832720  0.661107  0.894319  1
  W  W47  1  0.828387  0.167279  0.894319  1
  W  W48  1  0.661108  0.828387  0.394319  1
  W  W49  1  0.167280  0.338892  0.394319  1
  W  W50  1  0.338892  0.171613  0.894319  1
  W  W51  1  0.171613  0.832720  0.394319  1
