# generated using pymatgen
data_KTcCl3
_symmetry_space_group_name_H-M   'P 1'
_cell_length_a   8.32995358
_cell_length_b   8.32995358
_cell_length_c   9.06021125
_cell_angle_alpha   86.36834409
_cell_angle_beta   86.36834409
_cell_angle_gamma   118.29012383
_symmetry_Int_Tables_number   1
_chemical_formula_structural   KTcCl3
_chemical_formula_sum   'K4 Tc4 Cl12'
_cell_volume   549.34371819
_cell_formula_units_Z   4
loop_
 _symmetry_equiv_pos_site_id
 _symmetry_equiv_pos_as_xyz
  1  'x, y, z'
loop_
 _atom_site_type_symbol
 _atom_site_label
 _atom_site_symmetry_multiplicity
 _atom_site_fract_x
 _atom_site_fract_y
 _atom_site_fract_z
 _atom_site_occupancy
  K  K0  1  0.447384  0.114736  0.603835  1
  K  K1  1  0.114736  0.447384  0.103835  1
  K  K2  1  0.506115  0.171283  0.106767  1
  K  K3  1  0.171283  0.506115  0.606767  1
  Tc  Tc4  1  0.775903  0.679625  0.790989  1
  Tc  Tc5  1  0.679625  0.775903  0.290989  1
  Tc  Tc6  1  0.954920  0.855706  0.932113  1
  Tc  Tc7  1  0.855706  0.954920  0.432113  1
  Cl  Cl8  1  0.488051  0.515444  0.943274  1
  Cl  Cl9  1  0.515444  0.488051  0.443274  1
  Cl  Cl10  1  0.125279  0.148981  0.788169  1
  Cl  Cl11  1  0.148981  0.125279  0.288169  1
  Cl  Cl12  1  0.800357  0.400906  0.821261  1
  Cl  Cl13  1  0.400906  0.800357  0.321261  1
  Cl  Cl14  1  0.662142  0.869337  0.667376  1
  Cl  Cl15  1  0.869337  0.662142  0.167376  1
  Cl  Cl16  1  0.769191  0.972972  0.056701  1
  Cl  Cl17  1  0.972972  0.769191  0.556701  1
  Cl  Cl18  1  0.824050  0.229218  0.395914  1
  Cl  Cl19  1  0.229218  0.824050  0.895914  1
