# generated using pymatgen
data_LiMnPO4
_symmetry_space_group_name_H-M   'P 1'
_cell_length_a   5.11492600
_cell_length_b   6.90449600
_cell_length_c   10.29321000
_cell_angle_alpha   90.00000000
_cell_angle_beta   90.00000000
_cell_angle_gamma   90.00000000
_symmetry_Int_Tables_number   1
_chemical_formula_structural   LiMnPO4
_chemical_formula_sum   'Li4 Mn4 P4 O16'
_cell_volume   363.51486136
_cell_formula_units_Z   4
loop_
 _symmetry_equiv_pos_site_id
 _symmetry_equiv_pos_as_xyz
  1  'x, y, z'
loop_
 _atom_site_type_symbol
 _atom_site_label
 _atom_site_symmetry_multiplicity
 _atom_site_fract_x
 _atom_site_fract_y
 _atom_site_fract_z
 _atom_site_occupancy
  Li  Li0  1  0.687520  0.213294  0.152388  1
  Li  Li1  1  0.187520  0.713294  0.347612  1
  Li  Li2  1  0.812480  0.213294  0.652388  1
  Li  Li3  1  0.312480  0.713294  0.847612  1
  Mn  Mn4  1  0.688503  0.712912  0.153205  1
  Mn  Mn5  1  0.188503  0.212912  0.346795  1
  Mn  Mn6  1  0.811497  0.712912  0.653205  1
  Mn  Mn7  1  0.311497  0.212912  0.846795  1
  P  P8  1  0.814284  0.463240  0.904510  1
  P  P9  1  0.314284  0.963240  0.595490  1
  P  P10  1  0.685716  0.463240  0.404510  1
  P  P11  1  0.185716  0.963240  0.095490  1
  O  O12  1  0.255749  0.959695  0.948625  1
  O  O13  1  0.115798  0.467338  0.883185  1
  O  O14  1  0.693087  0.647657  0.841440  1
  O  O15  1  0.704469  0.277688  0.837618  1
  O  O16  1  0.744251  0.459695  0.051375  1
  O  O17  1  0.884202  0.967338  0.116815  1
  O  O18  1  0.306913  0.147657  0.158560  1
  O  O19  1  0.295531  0.777688  0.162382  1
  O  O20  1  0.795531  0.277688  0.337618  1
  O  O21  1  0.806913  0.647657  0.341440  1
  O  O22  1  0.384202  0.467338  0.383185  1
  O  O23  1  0.244251  0.959695  0.448625  1
  O  O24  1  0.755749  0.459695  0.551375  1
  O  O25  1  0.615798  0.967338  0.616815  1
  O  O26  1  0.193087  0.147657  0.658560  1
  O  O27  1  0.204469  0.777688  0.662382  1
