# generated using pymatgen
data_LiFeP2O7
_symmetry_space_group_name_H-M   'P 1'
_cell_length_a   5.27411081
_cell_length_b   5.27411081
_cell_length_c   4.56605105
_cell_angle_alpha   81.42843006
_cell_angle_beta   81.42843006
_cell_angle_gamma   102.43135860
_symmetry_Int_Tables_number   1
_chemical_formula_structural   LiFeP2O7
_chemical_formula_sum   'Li1 Fe1 P2 O7'
_cell_volume   120.47028592
_cell_formula_units_Z   1
loop_
 _symmetry_equiv_pos_site_id
 _symmetry_equiv_pos_as_xyz
  1  'x, y, z'
loop_
 _atom_site_type_symbol
 _atom_site_label
 _atom_site_symmetry_multiplicity
 _atom_site_fract_x
 _atom_site_fract_y
 _atom_site_fract_z
 _atom_site_occupancy
  Li  Li0  1  0.750743  0.249257  0.000000  1
  Fe  Fe1  1  0.126383  0.873617  0.000000  1
  P  P2  1  0.253021  0.332236  0.409974  1
  P  P3  1  0.667764  0.746979  0.590026  1
  O  O4  1  0.127678  0.537281  0.255028  1
  O  O5  1  0.072751  0.183495  0.709840  1
  O  O6  1  0.348611  0.157142  0.197545  1
  O  O7  1  0.525816  0.474184  0.500000  1
  O  O8  1  0.816505  0.927249  0.290160  1
  O  O9  1  0.462719  0.872322  0.744972  1
  O  O10  1  0.842858  0.651389  0.802455  1
