# generated using pymatgen
data_MgTe(H4O3)3
_symmetry_space_group_name_H-M   'P 1'
_cell_length_a   6.02948167
_cell_length_b   6.02948167
_cell_length_c   6.02948078
_cell_angle_alpha   97.22771402
_cell_angle_beta   97.22771402
_cell_angle_gamma   97.22770941
_symmetry_Int_Tables_number   1
_chemical_formula_structural   MgTe(H4O3)3
_chemical_formula_sum   'Mg1 Te1 H12 O9'
_cell_volume   213.48406481
_cell_formula_units_Z   1
loop_
 _symmetry_equiv_pos_site_id
 _symmetry_equiv_pos_as_xyz
  1  'x, y, z'
loop_
 _atom_site_type_symbol
 _atom_site_label
 _atom_site_symmetry_multiplicity
 _atom_site_fract_x
 _atom_site_fract_y
 _atom_site_fract_z
 _atom_site_occupancy
  Mg  Mg0  1  0.993467  0.993467  0.993467  1
  Te  Te1  1  0.461734  0.461734  0.461734  1
  H  H2  1  0.826359  0.185648  0.615386  1
  H  H3  1  0.185648  0.615386  0.826359  1
  H  H4  1  0.615386  0.826359  0.185648  1
  H  H5  1  0.720033  0.927126  0.578912  1
  H  H6  1  0.927126  0.578912  0.720033  1
  H  H7  1  0.578912  0.720033  0.927126  1
  H  H8  1  0.262801  0.872598  0.362032  1
  H  H9  1  0.872598  0.362032  0.262801  1
  H  H10  1  0.362032  0.262801  0.872598  1
  H  H11  1  0.042797  0.962456  0.452024  1
  H  H12  1  0.962456  0.452024  0.042797  1
  H  H13  1  0.452024  0.042797  0.962456  1
  O  O14  1  0.858831  0.034857  0.656965  1
  O  O15  1  0.034857  0.656965  0.858831  1
  O  O16  1  0.656965  0.858831  0.034857  1
  O  O17  1  0.120481  0.937121  0.317420  1
  O  O18  1  0.937121  0.317420  0.120481  1
  O  O19  1  0.317420  0.120481  0.937121  1
  O  O20  1  0.505798  0.769500  0.417555  1
  O  O21  1  0.769500  0.417555  0.505798  1
  O  O22  1  0.417555  0.505798  0.769500  1
