# generated using pymatgen
data_CrHO2
_symmetry_space_group_name_H-M   'P 1'
_cell_length_a   3.05834786
_cell_length_b   3.05817740
_cell_length_c   18.08125484
_cell_angle_alpha   94.99288600
_cell_angle_beta   85.00067411
_cell_angle_gamma   120.00298051
_symmetry_Int_Tables_number   1
_chemical_formula_structural   CrHO2
_chemical_formula_sum   'Cr4 H4 O8'
_cell_volume   145.70978185
_cell_formula_units_Z   4
loop_
 _symmetry_equiv_pos_site_id
 _symmetry_equiv_pos_as_xyz
  1  'x, y, z'
loop_
 _atom_site_type_symbol
 _atom_site_label
 _atom_site_symmetry_multiplicity
 _atom_site_fract_x
 _atom_site_fract_y
 _atom_site_fract_z
 _atom_site_occupancy
  Cr  Cr0  1  0.499408  0.500599  0.501601  1
  Cr  Cr1  1  0.748960  0.250441  0.751855  1
  Cr  Cr2  1  0.999336  0.000811  0.001607  1
  Cr  Cr3  1  0.250016  0.750378  0.251469  1
  H  H4  1  0.872366  0.127911  0.384083  1
  H  H5  1  0.121693  0.878034  0.634341  1
  H  H6  1  0.371688  0.628073  0.884285  1
  H  H7  1  0.622341  0.377991  0.134057  1
  O  O8  1  0.898220  0.102624  0.305295  1
  O  O9  1  0.147778  0.852078  0.555393  1
  O  O10  1  0.397115  0.602028  0.805648  1
  O  O11  1  0.647446  0.352698  0.055398  1
  O  O12  1  0.852775  0.147053  0.443702  1
  O  O13  1  0.101999  0.897659  0.693923  1
  O  O14  1  0.352221  0.647839  0.943896  1
  O  O15  1  0.603238  0.397182  0.193652  1
