# generated using pymatgen
data_ZnH12N4(ClO4)2
_symmetry_space_group_name_H-M   'P 1'
_cell_length_a   7.36308877
_cell_length_b   7.36308877
_cell_length_c   7.36308877
_cell_angle_alpha   60.00000000
_cell_angle_beta   60.00000000
_cell_angle_gamma   60.00000000
_symmetry_Int_Tables_number   1
_chemical_formula_structural   ZnH12N4(ClO4)2
_chemical_formula_sum   'Zn1 H12 N4 Cl2 O8'
_cell_volume   282.27025229
_cell_formula_units_Z   1
loop_
 _symmetry_equiv_pos_site_id
 _symmetry_equiv_pos_as_xyz
  1  'x, y, z'
loop_
 _atom_site_type_symbol
 _atom_site_label
 _atom_site_symmetry_multiplicity
 _atom_site_fract_x
 _atom_site_fract_y
 _atom_site_fract_z
 _atom_site_occupancy
  Zn  Zn0  1  0.000000  0.000000  0.000000  1
  H  H1  1  0.400762  0.791274  0.791274  1
  H  H2  1  0.016690  0.791274  0.400762  1
  H  H3  1  0.016690  0.400762  0.791274  1
  H  H4  1  0.791274  0.791274  0.016690  1
  H  H5  1  0.791274  0.016690  0.791274  1
  H  H6  1  0.791274  0.400762  0.016690  1
  H  H7  1  0.791274  0.016690  0.400762  1
  H  H8  1  0.400762  0.016690  0.791274  1
  H  H9  1  0.791274  0.791274  0.400762  1
  H  H10  1  0.791274  0.400762  0.791274  1
  H  H11  1  0.400762  0.791274  0.016690  1
  H  H12  1  0.016690  0.791274  0.791274  1
  N  N13  1  0.340701  0.886433  0.886433  1
  N  N14  1  0.886433  0.340701  0.886433  1
  N  N15  1  0.886433  0.886433  0.340701  1
  N  N16  1  0.886433  0.886433  0.886433  1
  Cl  Cl17  1  0.250000  0.250000  0.250000  1
  Cl  Cl18  1  0.500000  0.500000  0.500000  1
  O  O19  1  0.168883  0.168883  0.493351  1
  O  O20  1  0.168883  0.493351  0.168883  1
  O  O21  1  0.493351  0.168883  0.168883  1
  O  O22  1  0.168883  0.168883  0.168883  1
  O  O23  1  0.581176  0.581176  0.581176  1
  O  O24  1  0.581176  0.581176  0.256472  1
  O  O25  1  0.581176  0.256472  0.581176  1
  O  O26  1  0.256472  0.581176  0.581176  1
