# generated using pymatgen
data_LiMn(PO3)4
_symmetry_space_group_name_H-M   'P 1'
_cell_length_a   13.79381600
_cell_length_b   5.27807300
_cell_length_c   7.24371894
_cell_angle_alpha   80.01077515
_cell_angle_beta   90.00000000
_cell_angle_gamma   90.00000000
_symmetry_Int_Tables_number   1
_chemical_formula_structural   LiMn(PO3)4
_chemical_formula_sum   'Li2 Mn2 P8 O24'
_cell_volume   519.38244262
_cell_formula_units_Z   2
loop_
 _symmetry_equiv_pos_site_id
 _symmetry_equiv_pos_as_xyz
  1  'x, y, z'
loop_
 _atom_site_type_symbol
 _atom_site_label
 _atom_site_symmetry_multiplicity
 _atom_site_fract_x
 _atom_site_fract_y
 _atom_site_fract_z
 _atom_site_occupancy
  Li  Li0  1  0.506907  0.354539  0.127534  1
  Li  Li1  1  0.006907  0.645461  0.872466  1
  Mn  Mn2  1  0.735816  0.493365  0.503331  1
  Mn  Mn3  1  0.235816  0.506635  0.496669  1
  P  P4  1  0.595122  0.998753  0.550984  1
  P  P5  1  0.877679  0.985978  0.450441  1
  P  P6  1  0.095122  0.001247  0.449016  1
  P  P7  1  0.377679  0.014022  0.549559  1
  P  P8  1  0.673344  0.147687  0.895427  1
  P  P9  1  0.321148  0.218411  0.886787  1
  P  P10  1  0.821148  0.781589  0.113213  1
  P  P11  1  0.173344  0.852313  0.104573  1
  O  O12  1  0.764161  0.959128  0.947206  1
  O  O13  1  0.607095  0.982483  0.774081  1
  O  O14  1  0.264161  0.040872  0.052794  1
  O  O15  1  0.107095  0.017517  0.225919  1
  O  O16  1  0.364629  0.005023  0.771286  1
  O  O17  1  0.617370  0.189413  0.061617  1
  O  O18  1  0.487579  0.118437  0.509355  1
  O  O19  1  0.660401  0.209651  0.449365  1
  O  O20  1  0.316307  0.229623  0.441315  1
  O  O21  1  0.867264  0.247785  0.497677  1
  O  O22  1  0.102221  0.261650  0.499486  1
  O  O23  1  0.713797  0.382978  0.767542  1
  O  O24  1  0.247713  0.381680  0.762348  1
  O  O25  1  0.400600  0.347224  0.972254  1
  O  O26  1  0.900600  0.652776  0.027746  1
  O  O27  1  0.747713  0.618320  0.237652  1
  O  O28  1  0.213797  0.617022  0.232458  1
  O  O29  1  0.602221  0.738350  0.500514  1
  O  O30  1  0.367264  0.752215  0.502323  1
  O  O31  1  0.816307  0.770377  0.558685  1
  O  O32  1  0.160401  0.790349  0.550635  1
  O  O33  1  0.987579  0.881563  0.490645  1
  O  O34  1  0.117370  0.810587  0.938383  1
  O  O35  1  0.864629  0.994977  0.228714  1
