# generated using pymatgen
data_Li2CuPO4
_symmetry_space_group_name_H-M   'P 1'
_cell_length_a   5.07350900
_cell_length_b   5.30863600
_cell_length_c   6.23335100
_cell_angle_alpha   90.00000000
_cell_angle_beta   90.00000000
_cell_angle_gamma   90.00000000
_symmetry_Int_Tables_number   1
_chemical_formula_structural   Li2CuPO4
_chemical_formula_sum   'Li4 Cu2 P2 O8'
_cell_volume   167.88541389
_cell_formula_units_Z   2
loop_
 _symmetry_equiv_pos_site_id
 _symmetry_equiv_pos_as_xyz
  1  'x, y, z'
loop_
 _atom_site_type_symbol
 _atom_site_label
 _atom_site_symmetry_multiplicity
 _atom_site_fract_x
 _atom_site_fract_y
 _atom_site_fract_z
 _atom_site_occupancy
  Li  Li0  1  0.998554  0.324483  0.749715  1
  Li  Li1  1  0.498554  0.675517  0.750285  1
  Li  Li2  1  0.998554  0.324483  0.250285  1
  Li  Li3  1  0.498554  0.675517  0.249715  1
  Cu  Cu4  1  0.498388  0.190508  0.500000  1
  Cu  Cu5  1  0.998388  0.809492  0.000000  1
  P  P6  1  0.502737  0.177735  0.000000  1
  P  P7  1  0.002737  0.822265  0.500000  1
  O  O8  1  0.889882  0.683423  0.702110  1
  O  O9  1  0.389882  0.316577  0.202110  1
  O  O10  1  0.307830  0.803783  0.500000  1
  O  O11  1  0.414173  0.896683  0.000000  1
  O  O12  1  0.807830  0.196217  0.000000  1
  O  O13  1  0.889882  0.683423  0.297890  1
  O  O14  1  0.914173  0.103317  0.500000  1
  O  O15  1  0.389882  0.316577  0.797890  1
