# generated using pymatgen
data_MnP2O7
_symmetry_space_group_name_H-M   'P 1'
_cell_length_a   5.06514055
_cell_length_b   5.06514055
_cell_length_c   4.45068267
_cell_angle_alpha   81.63643046
_cell_angle_beta   81.63643046
_cell_angle_gamma   100.14946100
_symmetry_Int_Tables_number   1
_chemical_formula_structural   MnP2O7
_chemical_formula_sum   'Mn1 P2 O7'
_cell_volume   109.47358856
_cell_formula_units_Z   1
loop_
 _symmetry_equiv_pos_site_id
 _symmetry_equiv_pos_as_xyz
  1  'x, y, z'
loop_
 _atom_site_type_symbol
 _atom_site_label
 _atom_site_symmetry_multiplicity
 _atom_site_fract_x
 _atom_site_fract_y
 _atom_site_fract_z
 _atom_site_occupancy
  Mn  Mn0  1  0.111758  0.888242  0.000000  1
  P  P1  1  0.668161  0.738470  0.591356  1
  P  P2  1  0.261530  0.331839  0.408644  1
  O  O3  1  0.548913  0.451087  0.500000  1
  O  O4  1  0.434695  0.857619  0.732920  1
  O  O5  1  0.812182  0.928740  0.284678  1
  O  O6  1  0.859931  0.663630  0.813448  1
  O  O7  1  0.071260  0.187818  0.715322  1
  O  O8  1  0.142381  0.565305  0.267080  1
  O  O9  1  0.336370  0.140069  0.186552  1
