# generated using pymatgen
data_Li7TaO6
_symmetry_space_group_name_H-M   'P 1'
_cell_length_a   5.88489135
_cell_length_b   5.88489135
_cell_length_c   5.88489147
_cell_angle_alpha   56.84763595
_cell_angle_beta   56.84763595
_cell_angle_gamma   56.84764729
_symmetry_Int_Tables_number   1
_chemical_formula_structural   Li7TaO6
_chemical_formula_sum   'Li7 Ta1 O6'
_cell_volume   133.62926566
_cell_formula_units_Z   1
loop_
 _symmetry_equiv_pos_site_id
 _symmetry_equiv_pos_as_xyz
  1  'x, y, z'
loop_
 _atom_site_type_symbol
 _atom_site_label
 _atom_site_symmetry_multiplicity
 _atom_site_fract_x
 _atom_site_fract_y
 _atom_site_fract_z
 _atom_site_occupancy
  Li  Li0  1  0.121802  0.498066  0.726047  1
  Li  Li1  1  0.498066  0.726047  0.121802  1
  Li  Li2  1  0.726047  0.121802  0.498066  1
  Li  Li3  1  0.931342  0.489065  0.234929  1
  Li  Li4  1  0.489065  0.234929  0.931342  1
  Li  Li5  1  0.234929  0.931342  0.489065  1
  Li  Li6  1  0.654590  0.654590  0.654590  1
  Ta  Ta7  1  0.001333  0.001333  0.001333  1
  O  O8  1  0.642671  0.885233  0.231335  1
  O  O9  1  0.231335  0.642671  0.885233  1
  O  O10  1  0.885233  0.231335  0.642671  1
  O  O11  1  0.072232  0.797885  0.374970  1
  O  O12  1  0.797885  0.374970  0.072232  1
  O  O13  1  0.374970  0.072232  0.797885  1
