# generated using pymatgen
data_Cd(HO)2
_symmetry_space_group_name_H-M   'P 1'
_cell_length_a   6.44048244
_cell_length_b   6.44048244
_cell_length_c   3.27170068
_cell_angle_alpha   80.71252917
_cell_angle_beta   80.71252917
_cell_angle_gamma   123.73070023
_symmetry_Int_Tables_number   1
_chemical_formula_structural   Cd(HO)2
_chemical_formula_sum   'Cd2 H4 O4'
_cell_volume   106.04763910
_cell_formula_units_Z   2
loop_
 _symmetry_equiv_pos_site_id
 _symmetry_equiv_pos_as_xyz
  1  'x, y, z'
loop_
 _atom_site_type_symbol
 _atom_site_label
 _atom_site_symmetry_multiplicity
 _atom_site_fract_x
 _atom_site_fract_y
 _atom_site_fract_z
 _atom_site_occupancy
  Cd  Cd0  1  0.790443  0.066445  0.031818  1
  Cd  Cd1  1  0.066445  0.790443  0.031818  1
  H  H2  1  0.665813  0.304216  0.516012  1
  H  H3  1  0.304216  0.665813  0.516012  1
  H  H4  1  0.384340  0.384340  0.402306  1
  H  H5  1  0.577755  0.577755  0.653538  1
  O  O6  1  0.348757  0.842017  0.419031  1
  O  O7  1  0.842017  0.348757  0.419031  1
  O  O8  1  0.396251  0.396251  0.692928  1
  O  O9  1  0.836963  0.836963  0.601507  1
