# generated using pymatgen
data_LiCrP2O7
_symmetry_space_group_name_H-M   'P 1'
_cell_length_a   5.22178561
_cell_length_b   5.22178561
_cell_length_c   4.50385024
_cell_angle_alpha   81.58761849
_cell_angle_beta   81.58761849
_cell_angle_gamma   102.43924087
_symmetry_Int_Tables_number   1
_chemical_formula_structural   LiCrP2O7
_chemical_formula_sum   'Li1 Cr1 P2 O7'
_cell_volume   116.60655271
_cell_formula_units_Z   1
loop_
 _symmetry_equiv_pos_site_id
 _symmetry_equiv_pos_as_xyz
  1  'x, y, z'
loop_
 _atom_site_type_symbol
 _atom_site_label
 _atom_site_symmetry_multiplicity
 _atom_site_fract_x
 _atom_site_fract_y
 _atom_site_fract_z
 _atom_site_occupancy
  Li  Li0  1  0.749385  0.250615  0.000000  1
  Cr  Cr1  1  0.121366  0.878634  0.000000  1
  P  P2  1  0.668482  0.747220  0.590379  1
  P  P3  1  0.252780  0.331518  0.409621  1
  O  O4  1  0.461665  0.873433  0.742967  1
  O  O5  1  0.816288  0.928949  0.284695  1
  O  O6  1  0.849510  0.653472  0.803347  1
  O  O7  1  0.531229  0.468771  0.500000  1
  O  O8  1  0.071051  0.183712  0.715305  1
  O  O9  1  0.126567  0.538335  0.257033  1
  O  O10  1  0.346528  0.150490  0.196653  1
