# generated using pymatgen
data_H2CO
_symmetry_space_group_name_H-M   'P 1'
_cell_length_a   6.16761624
_cell_length_b   6.16761624
_cell_length_c   6.16761636
_cell_angle_alpha   100.99131584
_cell_angle_beta   100.99131584
_cell_angle_gamma   100.99131608
_symmetry_Int_Tables_number   1
_chemical_formula_structural   H2CO
_chemical_formula_sum   'H12 C6 O6'
_cell_volume   219.72160809
_cell_formula_units_Z   6
loop_
 _symmetry_equiv_pos_site_id
 _symmetry_equiv_pos_as_xyz
  1  'x, y, z'
loop_
 _atom_site_type_symbol
 _atom_site_label
 _atom_site_symmetry_multiplicity
 _atom_site_fract_x
 _atom_site_fract_y
 _atom_site_fract_z
 _atom_site_occupancy
  H  H0  1  0.241984  0.734191  0.449496  1
  H  H1  1  0.734191  0.449496  0.241984  1
  H  H2  1  0.449496  0.241984  0.734191  1
  H  H3  1  0.949496  0.234191  0.741984  1
  H  H4  1  0.234191  0.741984  0.949496  1
  H  H5  1  0.741984  0.949496  0.234191  1
  H  H6  1  0.522515  0.806179  0.642502  1
  H  H7  1  0.806179  0.642502  0.522515  1
  H  H8  1  0.022515  0.142502  0.306179  1
  H  H9  1  0.142502  0.306179  0.022515  1
  H  H10  1  0.306179  0.022515  0.142502  1
  H  H11  1  0.642502  0.522515  0.806179  1
  C  C12  1  0.892219  0.010562  0.172910  1
  C  C13  1  0.672910  0.510562  0.392219  1
  C  C14  1  0.510562  0.392219  0.672910  1
  C  C15  1  0.010562  0.172910  0.892219  1
  C  C16  1  0.172910  0.892219  0.010562  1
  C  C17  1  0.392219  0.672910  0.510562  1
  O  O18  1  0.320145  0.484311  0.603987  1
  O  O19  1  0.484311  0.603987  0.320145  1
  O  O20  1  0.603987  0.320145  0.484311  1
  O  O21  1  0.103987  0.984311  0.820145  1
  O  O22  1  0.984311  0.820145  0.103987  1
  O  O23  1  0.820145  0.103987  0.984311  1
