# generated using pymatgen
data_MnGeN2
_symmetry_space_group_name_H-M   'P 1'
_cell_length_a   5.31697700
_cell_length_b   5.55986700
_cell_length_c   6.69949400
_cell_angle_alpha   90.00000000
_cell_angle_beta   90.00000000
_cell_angle_gamma   90.00000000
_symmetry_Int_Tables_number   1
_chemical_formula_structural   MnGeN2
_chemical_formula_sum   'Mn4 Ge4 N8'
_cell_volume   198.04833103
_cell_formula_units_Z   4
loop_
 _symmetry_equiv_pos_site_id
 _symmetry_equiv_pos_as_xyz
  1  'x, y, z'
loop_
 _atom_site_type_symbol
 _atom_site_label
 _atom_site_symmetry_multiplicity
 _atom_site_fract_x
 _atom_site_fract_y
 _atom_site_fract_z
 _atom_site_occupancy
  Mn  Mn0  1  0.998001  0.581423  0.875962  1
  Mn  Mn1  1  0.498001  0.918577  0.375962  1
  Mn  Mn2  1  0.498001  0.418577  0.124038  1
  Mn  Mn3  1  0.998001  0.081423  0.624038  1
  Ge  Ge4  1  0.000860  0.072022  0.125380  1
  Ge  Ge5  1  0.500860  0.927978  0.874620  1
  Ge  Ge6  1  0.500860  0.427978  0.625380  1
  Ge  Ge7  1  0.000860  0.572022  0.374620  1
  N  N8  1  0.398649  0.602779  0.854339  1
  N  N9  1  0.898649  0.397221  0.145661  1
  N  N10  1  0.898649  0.897221  0.354339  1
  N  N11  1  0.398649  0.102779  0.645661  1
  N  N12  1  0.355490  0.560376  0.394485  1
  N  N13  1  0.355490  0.060376  0.105515  1
  N  N14  1  0.855490  0.939624  0.894485  1
  N  N15  1  0.855490  0.439624  0.605515  1
