# generated using pymatgen
data_LiCoPO4
_symmetry_space_group_name_H-M   'P 1'
_cell_length_a   5.03629500
_cell_length_b   10.19458800
_cell_length_c   6.80037500
_cell_angle_alpha   89.99668504
_cell_angle_beta   89.99985044
_cell_angle_gamma   90.00042972
_symmetry_Int_Tables_number   1
_chemical_formula_structural   LiCoPO4
_chemical_formula_sum   'Li4 Co4 P4 O16'
_cell_volume   349.15133080
_cell_formula_units_Z   4
loop_
 _symmetry_equiv_pos_site_id
 _symmetry_equiv_pos_as_xyz
  1  'x, y, z'
loop_
 _atom_site_type_symbol
 _atom_site_label
 _atom_site_symmetry_multiplicity
 _atom_site_fract_x
 _atom_site_fract_y
 _atom_site_fract_z
 _atom_site_occupancy
  Li  Li0  1  0.687203  0.154081  0.712904  1
  Li  Li1  1  0.187199  0.345925  0.212916  1
  Li  Li2  1  0.312786  0.845921  0.212901  1
  Li  Li3  1  0.812783  0.654076  0.712904  1
  Co  Co4  1  0.186816  0.345280  0.715447  1
  Co  Co5  1  0.686863  0.154703  0.215403  1
  Co  Co6  1  0.813171  0.654706  0.215454  1
  Co  Co7  1  0.313179  0.845281  0.715449  1
  P  P8  1  0.184651  0.095106  0.962478  1
  P  P9  1  0.684587  0.404928  0.462581  1
  P  P10  1  0.315419  0.595260  0.962590  1
  P  P11  1  0.815414  0.904695  0.462575  1
  O  O12  1  0.199553  0.661097  0.774529  1
  O  O13  1  0.300587  0.160975  0.774457  1
  O  O14  1  0.800525  0.339055  0.274561  1
  O  O15  1  0.699588  0.838870  0.274521  1
  O  O16  1  0.255845  0.946908  0.960617  1
  O  O17  1  0.244122  0.447015  0.960700  1
  O  O18  1  0.755835  0.553112  0.460639  1
  O  O19  1  0.744115  0.052942  0.460686  1
  O  O20  1  0.698265  0.839553  0.650587  1
  O  O21  1  0.198250  0.660407  0.150582  1
  O  O22  1  0.801612  0.339653  0.650582  1
  O  O23  1  0.301573  0.160386  0.150506  1
  O  O24  1  0.121357  0.883171  0.465225  1
  O  O25  1  0.378644  0.383335  0.465159  1
  O  O26  1  0.621355  0.616818  0.965249  1
  O  O27  1  0.878705  0.116739  0.965103  1
