# generated using pymatgen
data_Bi(BO2)3
_symmetry_space_group_name_H-M   'P 1'
_cell_length_a   4.41418165
_cell_length_b   4.41418165
_cell_length_c   6.65201675
_cell_angle_alpha   78.67315888
_cell_angle_beta   78.67315888
_cell_angle_gamma   72.53875573
_symmetry_Int_Tables_number   1
_chemical_formula_structural   Bi(BO2)3
_chemical_formula_sum   'Bi1 B3 O6'
_cell_volume   119.91714077
_cell_formula_units_Z   1
loop_
 _symmetry_equiv_pos_site_id
 _symmetry_equiv_pos_as_xyz
  1  'x, y, z'
loop_
 _atom_site_type_symbol
 _atom_site_label
 _atom_site_symmetry_multiplicity
 _atom_site_fract_x
 _atom_site_fract_y
 _atom_site_fract_z
 _atom_site_occupancy
  Bi  Bi0  1  0.020868  0.979132  0.000000  1
  B  B1  1  0.287257  0.712743  0.500000  1
  B  B2  1  0.698304  0.801496  0.695065  1
  B  B3  1  0.198504  0.301696  0.304935  1
  O  O4  1  0.525387  0.902157  0.878037  1
  O  O5  1  0.301645  0.402654  0.450803  1
  O  O6  1  0.597346  0.698355  0.549197  1
  O  O7  1  0.024398  0.792332  0.680480  1
  O  O8  1  0.207668  0.975602  0.319520  1
  O  O9  1  0.097843  0.474613  0.121963  1
