# generated using pymatgen
data_LiNi4(PO4)3
_symmetry_space_group_name_H-M   'P 1'
_cell_length_a   10.32727682
_cell_length_b   10.32727682
_cell_length_c   10.32727682
_cell_angle_alpha   142.70452450
_cell_angle_beta   142.70452450
_cell_angle_gamma   53.76896628
_symmetry_Int_Tables_number   1
_chemical_formula_structural   LiNi4(PO4)3
_chemical_formula_sum   'Li2 Ni8 P6 O24'
_cell_volume   401.75507647
_cell_formula_units_Z   2
loop_
 _symmetry_equiv_pos_site_id
 _symmetry_equiv_pos_as_xyz
  1  'x, y, z'
loop_
 _atom_site_type_symbol
 _atom_site_label
 _atom_site_symmetry_multiplicity
 _atom_site_fract_x
 _atom_site_fract_y
 _atom_site_fract_z
 _atom_site_occupancy
  Li  Li0  1  0.750000  0.250000  0.500000  1
  Li  Li1  1  0.000000  0.000000  0.000000  1
  Ni  Ni2  1  0.727766  0.727766  0.000000  1
  Ni  Ni3  1  0.129828  0.625000  0.004828  1
  Ni  Ni4  1  0.022234  0.522234  0.500000  1
  Ni  Ni5  1  0.272234  0.272234  0.000000  1
  Ni  Ni6  1  0.375000  0.379828  0.504828  1
  Ni  Ni7  1  0.620172  0.125000  0.995172  1
  Ni  Ni8  1  0.477766  0.977766  0.500000  1
  Ni  Ni9  1  0.875000  0.870172  0.495172  1
  P  P10  1  0.375000  0.977489  0.102489  1
  P  P11  1  0.875000  0.272511  0.897511  1
  P  P12  1  0.022511  0.125000  0.397511  1
  P  P13  1  0.500000  0.500000  0.000000  1
  P  P14  1  0.727489  0.625000  0.602489  1
  P  P15  1  0.250000  0.750000  0.500000  1
  O  O16  1  0.010680  0.757470  0.355046  1
  O  O17  1  0.162214  0.836755  0.790391  1
  O  O18  1  0.587786  0.878178  0.174541  1
  O  O19  1  0.628178  0.837786  0.674541  1
  O  O20  1  0.975972  0.190019  0.782961  1
  O  O21  1  0.774028  0.056989  0.714047  1
  O  O22  1  0.407058  0.193011  0.217039  1
  O  O23  1  0.342942  0.059981  0.285953  1
  O  O24  1  0.242530  0.597577  0.253210  1
  O  O25  1  0.809981  0.592942  0.785953  1
  O  O26  1  0.943011  0.657058  0.717039  1
  O  O27  1  0.405633  0.652423  0.144954  1
  O  O28  1  0.586755  0.412214  0.290391  1
  O  O29  1  0.739320  0.594367  0.246790  1
  O  O30  1  0.347577  0.492530  0.753210  1
  O  O31  1  0.402423  0.655633  0.644954  1
  O  O32  1  0.121822  0.296363  0.709609  1
  O  O33  1  0.507470  0.260680  0.855046  1
  O  O34  1  0.940019  0.225972  0.282961  1
  O  O35  1  0.703637  0.413245  0.825459  1
  O  O36  1  0.046363  0.371822  0.209609  1
  O  O37  1  0.806989  0.024028  0.214047  1
  O  O38  1  0.344367  0.989320  0.746790  1
  O  O39  1  0.163245  0.953637  0.325459  1
