# generated using pymatgen
data_Li2CuPO4
_symmetry_space_group_name_H-M   'P 1'
_cell_length_a   5.41768100
_cell_length_b   5.05725400
_cell_length_c   7.98212753
_cell_angle_alpha   50.68562937
_cell_angle_beta   90.00000000
_cell_angle_gamma   90.00000000
_symmetry_Int_Tables_number   1
_chemical_formula_structural   Li2CuPO4
_chemical_formula_sum   'Li4 Cu2 P2 O8'
_cell_volume   169.20335583
_cell_formula_units_Z   2
loop_
 _symmetry_equiv_pos_site_id
 _symmetry_equiv_pos_as_xyz
  1  'x, y, z'
loop_
 _atom_site_type_symbol
 _atom_site_label
 _atom_site_symmetry_multiplicity
 _atom_site_fract_x
 _atom_site_fract_y
 _atom_site_fract_z
 _atom_site_occupancy
  Li  Li0  1  0.671386  0.753216  0.747017  1
  Li  Li1  1  0.847969  0.501257  0.499900  1
  Li  Li2  1  0.152031  0.501257  0.999900  1
  Li  Li3  1  0.328614  0.753216  0.247017  1
  Cu  Cu4  1  0.343955  0.253713  0.755178  1
  Cu  Cu5  1  0.656045  0.253713  0.255178  1
  P  P6  1  0.829469  0.004726  0.999921  1
  P  P7  1  0.170531  0.004726  0.499921  1
  O  O8  1  0.703358  0.099512  0.791382  1
  O  O9  1  0.296642  0.099512  0.291382  1
  O  O10  1  0.314329  0.708194  0.707521  1
  O  O11  1  0.685671  0.708194  0.207521  1
  O  O12  1  0.098757  0.886281  0.010126  1
  O  O13  1  0.169939  0.321900  0.490256  1
  O  O14  1  0.901243  0.886281  0.510126  1
  O  O15  1  0.830061  0.321900  0.990256  1
