# generated using pymatgen
data_S3(NCl)2
_symmetry_space_group_name_H-M   'P 1'
_cell_length_a   9.15441200
_cell_length_b   5.70101100
_cell_length_c   6.66738793
_cell_angle_alpha   78.37557162
_cell_angle_beta   90.00000000
_cell_angle_gamma   90.00000000
_symmetry_Int_Tables_number   1
_chemical_formula_structural   S3(NCl)2
_chemical_formula_sum   'S6 N4 Cl4'
_cell_volume   340.82999738
_cell_formula_units_Z   2
loop_
 _symmetry_equiv_pos_site_id
 _symmetry_equiv_pos_as_xyz
  1  'x, y, z'
loop_
 _atom_site_type_symbol
 _atom_site_label
 _atom_site_symmetry_multiplicity
 _atom_site_fract_x
 _atom_site_fract_y
 _atom_site_fract_z
 _atom_site_occupancy
  S  S0  1  0.168684  0.697120  0.608381  1
  S  S1  1  0.767501  0.123314  0.786657  1
  S  S2  1  0.530643  0.162343  0.767211  1
  S  S3  1  0.668684  0.302880  0.391619  1
  S  S4  1  0.030643  0.837657  0.232789  1
  S  S5  1  0.267501  0.876686  0.213343  1
  N  N6  1  0.520003  0.235300  0.527108  1
  N  N7  1  0.795658  0.248894  0.550175  1
  N  N8  1  0.295658  0.751106  0.449825  1
  N  N9  1  0.020003  0.764700  0.472892  1
  Cl  Cl10  1  0.997830  0.509507  0.106551  1
  Cl  Cl11  1  0.497830  0.490493  0.893449  1
  Cl  Cl12  1  0.646881  0.924334  0.191510  1
  Cl  Cl13  1  0.146881  0.075666  0.808490  1
