# generated using pymatgen
data_LiMoP2O7
_symmetry_space_group_name_H-M   'P 1'
_cell_length_a   5.40712612
_cell_length_b   5.40712612
_cell_length_c   4.59639132
_cell_angle_alpha   81.89050815
_cell_angle_beta   81.89050815
_cell_angle_gamma   103.24838065
_symmetry_Int_Tables_number   1
_chemical_formula_structural   LiMoP2O7
_chemical_formula_sum   'Li1 Mo1 P2 O7'
_cell_volume   127.38655091
_cell_formula_units_Z   1
loop_
 _symmetry_equiv_pos_site_id
 _symmetry_equiv_pos_as_xyz
  1  'x, y, z'
loop_
 _atom_site_type_symbol
 _atom_site_label
 _atom_site_symmetry_multiplicity
 _atom_site_fract_x
 _atom_site_fract_y
 _atom_site_fract_z
 _atom_site_occupancy
  Li  Li0  1  0.749296  0.250704  0.000000  1
  Mo  Mo1  1  0.123291  0.876709  0.000000  1
  P  P2  1  0.254345  0.334326  0.411766  1
  P  P3  1  0.665674  0.745655  0.588234  1
  O  O4  1  0.076159  0.193775  0.710011  1
  O  O5  1  0.806225  0.923841  0.289989  1
  O  O6  1  0.842572  0.648450  0.789061  1
  O  O7  1  0.476486  0.872548  0.745593  1
  O  O8  1  0.521800  0.478200  0.500000  1
  O  O9  1  0.127452  0.523514  0.254407  1
  O  O10  1  0.351550  0.157428  0.210939  1
