# generated using pymatgen
data_K3B6BrO10
_symmetry_space_group_name_H-M   'P 1'
_cell_length_a   6.62621122
_cell_length_b   6.62621122
_cell_length_c   6.62621159
_cell_angle_alpha   100.86405373
_cell_angle_beta   100.86405373
_cell_angle_gamma   100.86406361
_symmetry_Int_Tables_number   1
_chemical_formula_structural   K3B6BrO10
_chemical_formula_sum   'K3 B6 Br1 O10'
_cell_volume   272.92661677
_cell_formula_units_Z   1
loop_
 _symmetry_equiv_pos_site_id
 _symmetry_equiv_pos_as_xyz
  1  'x, y, z'
loop_
 _atom_site_type_symbol
 _atom_site_label
 _atom_site_symmetry_multiplicity
 _atom_site_fract_x
 _atom_site_fract_y
 _atom_site_fract_z
 _atom_site_occupancy
  K  K0  1  0.929961  0.929961  0.471832  1
  K  K1  1  0.929961  0.471832  0.929961  1
  K  K2  1  0.471832  0.929961  0.929961  1
  B  B3  1  0.358822  0.358822  0.621178  1
  B  B4  1  0.358822  0.621178  0.358822  1
  B  B5  1  0.621178  0.358822  0.358822  1
  B  B6  1  0.478318  0.031209  0.478318  1
  B  B7  1  0.478318  0.478318  0.031209  1
  B  B8  1  0.031209  0.478318  0.478318  1
  Br  Br9  1  0.994648  0.994648  0.994648  1
  O  O10  1  0.825826  0.486760  0.486760  1
  O  O11  1  0.443215  0.443215  0.443215  1
  O  O12  1  0.486760  0.825826  0.486760  1
  O  O13  1  0.486760  0.486760  0.825826  1
  O  O14  1  0.135113  0.366261  0.600012  1
  O  O15  1  0.600012  0.135113  0.366261  1
  O  O16  1  0.366261  0.600012  0.135113  1
  O  O17  1  0.366261  0.135113  0.600012  1
  O  O18  1  0.600012  0.366261  0.135113  1
  O  O19  1  0.135113  0.600012  0.366261  1
