# generated using pymatgen
data_K2NaVOF5
_symmetry_space_group_name_H-M   'P 1'
_cell_length_a   6.01469432
_cell_length_b   11.96711976
_cell_length_c   8.37129409
_cell_angle_alpha   89.99362537
_cell_angle_beta   89.98820449
_cell_angle_gamma   89.99572896
_symmetry_Int_Tables_number   1
_chemical_formula_structural   K2NaVOF5
_chemical_formula_sum   'K8 Na4 V4 O4 F20'
_cell_volume   602.55373603
_cell_formula_units_Z   4
loop_
 _symmetry_equiv_pos_site_id
 _symmetry_equiv_pos_as_xyz
  1  'x, y, z'
loop_
 _atom_site_type_symbol
 _atom_site_label
 _atom_site_symmetry_multiplicity
 _atom_site_fract_x
 _atom_site_fract_y
 _atom_site_fract_z
 _atom_site_occupancy
  K  K0  1  0.499997  0.499981  0.255444  1
  K  K1  1  0.000010  0.749959  0.755601  1
  K  K2  1  0.500001  0.000026  0.255404  1
  K  K3  1  0.000015  0.249975  0.755540  1
  K  K4  1  0.500001  0.499971  0.755434  1
  K  K5  1  0.000013  0.749977  0.255474  1
  K  K6  1  0.500004  0.000019  0.755503  1
  K  K7  1  0.000018  0.249979  0.255510  1
  Na  Na8  1  0.999999  0.499976  0.502756  1
  Na  Na9  1  0.500003  0.749978  0.002589  1
  Na  Na10  1  0.000010  0.000004  0.502759  1
  Na  Na11  1  0.500004  0.249978  0.002539  1
  V  V12  1  0.999982  0.499927  0.017960  1
  V  V13  1  0.499965  0.750037  0.517288  1
  V  V14  1  0.000047  0.000057  0.017962  1
  V  V15  1  0.500041  0.249914  0.517268  1
  O  O16  1  0.999990  0.499979  0.219188  1
  O  O17  1  0.499998  0.750021  0.718606  1
  O  O18  1  0.999991  0.000103  0.219182  1
  O  O19  1  0.499998  0.249974  0.718552  1
  F  F20  1  0.999964  0.499994  0.774727  1
  F  F21  1  0.499995  0.750006  0.274173  1
  F  F22  1  0.000010  0.000210  0.774823  1
  F  F23  1  0.500010  0.249993  0.274062  1
  F  F24  1  0.730389  0.634035  0.493454  1
  F  F25  1  0.231085  0.884343  0.994215  1
  F  F26  1  0.730480  0.133997  0.493477  1
  F  F27  1  0.231103  0.384305  0.994214  1
  F  F28  1  0.730382  0.365942  0.493443  1
  F  F29  1  0.231060  0.615610  0.994271  1
  F  F30  1  0.730401  0.866021  0.493464  1
  F  F31  1  0.231189  0.115708  0.994245  1
  F  F32  1  0.269532  0.634041  0.493521  1
  F  F33  1  0.768929  0.884346  0.994223  1
  F  F34  1  0.269540  0.134004  0.493484  1
  F  F35  1  0.768877  0.384233  0.994219  1
  F  F36  1  0.269631  0.365943  0.493447  1
  F  F37  1  0.768930  0.615611  0.994286  1
  F  F38  1  0.269540  0.866146  0.493476  1
  F  F39  1  0.768869  0.115679  0.994218  1
