# generated using pymatgen
data_Ca4Sb2S
_symmetry_space_group_name_H-M   'P 1'
_cell_length_a   8.05137636
_cell_length_b   8.05137636
_cell_length_c   8.05137636
_cell_angle_alpha   110.54950673
_cell_angle_beta   110.54950673
_cell_angle_gamma   107.33552681
_symmetry_Int_Tables_number   1
_chemical_formula_structural   Ca4Sb2S
_chemical_formula_sum   'Ca8 Sb4 S2'
_cell_volume   401.36342742
_cell_formula_units_Z   2
loop_
 _symmetry_equiv_pos_site_id
 _symmetry_equiv_pos_as_xyz
  1  'x, y, z'
loop_
 _atom_site_type_symbol
 _atom_site_label
 _atom_site_symmetry_multiplicity
 _atom_site_fract_x
 _atom_site_fract_y
 _atom_site_fract_z
 _atom_site_occupancy
  Ca  Ca0  1  0.613508  0.875710  0.878265  1
  Ca  Ca1  1  0.264757  0.386492  0.262202  1
  Ca  Ca2  1  0.124290  0.002555  0.737798  1
  Ca  Ca3  1  0.485243  0.247445  0.621735  1
  Ca  Ca4  1  0.136492  0.514757  0.762202  1
  Ca  Ca5  1  0.752555  0.374290  0.237798  1
  Ca  Ca6  1  0.997445  0.735243  0.121735  1
  Ca  Ca7  1  0.625710  0.863508  0.378265  1
  Sb  Sb8  1  0.375000  0.997355  0.122355  1
  Sb  Sb9  1  0.002645  0.125000  0.377645  1
  Sb  Sb10  1  0.875000  0.252645  0.877645  1
  Sb  Sb11  1  0.747355  0.625000  0.622355  1
  S  S12  1  0.500000  0.500000  0.000000  1
  S  S13  1  0.250000  0.750000  0.500000  1
