# generated using pymatgen
data_Sm5AgS8
_symmetry_space_group_name_H-M   'P 1'
_cell_length_a   7.35542128
_cell_length_b   7.35542128
_cell_length_c   7.35542128
_cell_angle_alpha   109.68137985
_cell_angle_beta   109.68137985
_cell_angle_gamma   109.05171490
_symmetry_Int_Tables_number   1
_chemical_formula_structural   Sm5AgS8
_chemical_formula_sum   'Sm5 Ag1 S8'
_cell_volume   306.32561830
_cell_formula_units_Z   1
loop_
 _symmetry_equiv_pos_site_id
 _symmetry_equiv_pos_as_xyz
  1  'x, y, z'
loop_
 _atom_site_type_symbol
 _atom_site_label
 _atom_site_symmetry_multiplicity
 _atom_site_fract_x
 _atom_site_fract_y
 _atom_site_fract_z
 _atom_site_occupancy
  Sm  Sm0  1  0.632957  0.747061  0.618019  1
  Sm  Sm1  1  0.985062  0.367043  0.114104  1
  Sm  Sm2  1  0.129043  0.014938  0.381981  1
  Sm  Sm3  1  0.500000  0.500000  0.000000  1
  Sm  Sm4  1  0.252939  0.870957  0.885896  1
  Ag  Ag5  1  0.750000  0.250000  0.500000  1
  S  S6  1  0.380116  0.270967  0.248758  1
  S  S7  1  0.358459  0.749491  0.240411  1
  S  S8  1  0.868642  0.619884  0.890850  1
  S  S9  1  0.509080  0.118048  0.759589  1
  S  S10  1  0.250509  0.490920  0.608968  1
  S  S11  1  0.881952  0.641541  0.391032  1
  S  S12  1  0.729033  0.977791  0.109150  1
  S  S13  1  0.022209  0.131358  0.751242  1
