# generated using pymatgen
data_Ga2S3
_symmetry_space_group_name_H-M   'P 1'
_cell_length_a   6.55370233
_cell_length_b   6.55370233
_cell_length_c   6.43139611
_cell_angle_alpha   81.02403184
_cell_angle_beta   81.02403184
_cell_angle_gamma   120.84345094
_symmetry_Int_Tables_number   1
_chemical_formula_structural   Ga2S3
_chemical_formula_sum   'Ga4 S6'
_cell_volume   225.00858777
_cell_formula_units_Z   2
loop_
 _symmetry_equiv_pos_site_id
 _symmetry_equiv_pos_as_xyz
  1  'x, y, z'
loop_
 _atom_site_type_symbol
 _atom_site_label
 _atom_site_symmetry_multiplicity
 _atom_site_fract_x
 _atom_site_fract_y
 _atom_site_fract_z
 _atom_site_occupancy
  Ga  Ga0  1  0.981096  0.148227  0.002909  1
  Ga  Ga1  1  0.347884  0.841014  0.002408  1
  Ga  Ga2  1  0.148227  0.981096  0.502909  1
  Ga  Ga3  1  0.841014  0.347884  0.502408  1
  S  S4  1  0.617884  0.787608  0.132420  1
  S  S5  1  0.299077  0.138999  0.120031  1
  S  S6  1  0.138999  0.299077  0.620031  1
  S  S7  1  0.959819  0.461722  0.117233  1
  S  S8  1  0.787608  0.617884  0.632420  1
  S  S9  1  0.461722  0.959819  0.617233  1
