# generated using pymatgen
data_Cd(Ga3Te5)2
_symmetry_space_group_name_H-M   'P 1'
_cell_length_a   7.53412824
_cell_length_b   7.53412824
_cell_length_c   13.38282310
_cell_angle_alpha   88.94261389
_cell_angle_beta   88.94261389
_cell_angle_gamma   48.34680029
_symmetry_Int_Tables_number   1
_chemical_formula_structural   Cd(Ga3Te5)2
_chemical_formula_sum   'Cd1 Ga6 Te10'
_cell_volume   567.48042695
_cell_formula_units_Z   1
loop_
 _symmetry_equiv_pos_site_id
 _symmetry_equiv_pos_as_xyz
  1  'x, y, z'
loop_
 _atom_site_type_symbol
 _atom_site_label
 _atom_site_symmetry_multiplicity
 _atom_site_fract_x
 _atom_site_fract_y
 _atom_site_fract_z
 _atom_site_occupancy
  Cd  Cd0  1  0.899735  0.100265  0.500000  1
  Ga  Ga1  1  0.003276  0.192385  0.801488  1
  Ga  Ga2  1  0.713939  0.893671  0.898776  1
  Ga  Ga3  1  0.807615  0.996724  0.198512  1
  Ga  Ga4  1  0.106329  0.286061  0.101224  1
  Ga  Ga5  1  0.201249  0.395634  0.399727  1
  Ga  Ga6  1  0.604366  0.798751  0.600273  1
  Te  Te7  1  0.782689  0.507108  0.954250  1
  Te  Te8  1  0.105090  0.793382  0.843928  1
  Te  Te9  1  0.206618  0.894910  0.156072  1
  Te  Te10  1  0.492892  0.217311  0.045750  1
  Te  Te11  1  0.574635  0.338175  0.336758  1
  Te  Te12  1  0.876680  0.605589  0.251199  1
  Te  Te13  1  0.031299  0.662230  0.564882  1
  Te  Te14  1  0.337770  0.968701  0.435118  1
  Te  Te15  1  0.394411  0.123320  0.748801  1
  Te  Te16  1  0.661825  0.425365  0.663242  1
