# generated using pymatgen
data_BaLaZnRuO6
_symmetry_space_group_name_H-M   'P 1'
_cell_length_a   5.69471400
_cell_length_b   5.71738099
_cell_length_c   5.72082360
_cell_angle_alpha   90.43124182
_cell_angle_beta   119.35121455
_cell_angle_gamma   119.74964445
_symmetry_Int_Tables_number   1
_chemical_formula_structural   BaLaZnRuO6
_chemical_formula_sum   'Ba1 La1 Zn1 Ru1 O6'
_cell_volume   132.99236216
_cell_formula_units_Z   1
loop_
 _symmetry_equiv_pos_site_id
 _symmetry_equiv_pos_as_xyz
  1  'x, y, z'
loop_
 _atom_site_type_symbol
 _atom_site_label
 _atom_site_symmetry_multiplicity
 _atom_site_fract_x
 _atom_site_fract_y
 _atom_site_fract_z
 _atom_site_occupancy
  Ba  Ba0  1  0.499463  0.750431  0.249674  1
  La  La1  1  0.482715  0.249888  0.735250  1
  Zn  Zn2  1  0.992899  0.001159  0.998624  1
  Ru  Ru3  1  0.999893  0.500472  0.501428  1
  O  O4  1  0.050666  0.805556  0.322337  1
  O  O5  1  0.485887  0.679473  0.721281  1
  O  O6  1  0.910065  0.261041  0.167572  1
  O  O7  1  0.047551  0.740971  0.788452  1
  O  O8  1  0.517908  0.286856  0.305546  1
  O  O9  1  0.012953  0.224153  0.709837  1
