# generated using pymatgen
data_Zr2P3H4NO12
_symmetry_space_group_name_H-M   'P 1'
_cell_length_a   9.68110368
_cell_length_b   9.68110368
_cell_length_c   9.68110357
_cell_angle_alpha   54.13775103
_cell_angle_beta   54.13775103
_cell_angle_gamma   54.13774857
_symmetry_Int_Tables_number   1
_chemical_formula_structural   Zr2P3H4NO12
_chemical_formula_sum   'Zr4 P6 H8 N2 O24'
_cell_volume   553.78594837
_cell_formula_units_Z   2
loop_
 _symmetry_equiv_pos_site_id
 _symmetry_equiv_pos_as_xyz
  1  'x, y, z'
loop_
 _atom_site_type_symbol
 _atom_site_label
 _atom_site_symmetry_multiplicity
 _atom_site_fract_x
 _atom_site_fract_y
 _atom_site_fract_z
 _atom_site_occupancy
  Zr  Zr0  1  0.151409  0.151409  0.151409  1
  Zr  Zr1  1  0.349537  0.349537  0.349537  1
  Zr  Zr2  1  0.651409  0.651409  0.651409  1
  Zr  Zr3  1  0.849537  0.849537  0.849537  1
  P  P4  1  0.748613  0.037210  0.466851  1
  P  P5  1  0.037210  0.466851  0.748613  1
  P  P6  1  0.466851  0.748613  0.037210  1
  P  P7  1  0.537210  0.248613  0.966851  1
  P  P8  1  0.966851  0.537210  0.248613  1
  P  P9  1  0.248613  0.966851  0.537210  1
  H  H10  1  0.463952  0.463952  0.463952  1
  H  H11  1  0.646274  0.454824  0.460689  1
  H  H12  1  0.454824  0.460689  0.646274  1
  H  H13  1  0.460689  0.646274  0.454824  1
  H  H14  1  0.954824  0.146274  0.960689  1
  H  H15  1  0.960689  0.954824  0.146274  1
  H  H16  1  0.146274  0.960689  0.954824  1
  H  H17  1  0.963952  0.963952  0.963952  1
  N  N18  1  0.005475  0.005475  0.005475  1
  N  N19  1  0.505475  0.505475  0.505475  1
  O  O20  1  0.246649  0.139842  0.513467  1
  O  O21  1  0.513467  0.246649  0.139842  1
  O  O22  1  0.139842  0.513467  0.246649  1
  O  O23  1  0.923536  0.072838  0.302713  1
  O  O24  1  0.576093  0.201871  0.428386  1
  O  O25  1  0.746649  0.013467  0.639842  1
  O  O26  1  0.072838  0.302713  0.923536  1
  O  O27  1  0.201871  0.428386  0.576093  1
  O  O28  1  0.428386  0.576093  0.201871  1
  O  O29  1  0.701871  0.076093  0.928386  1
  O  O30  1  0.364412  0.251392  0.987867  1
  O  O31  1  0.013467  0.639842  0.746649  1
  O  O32  1  0.987867  0.364412  0.251392  1
  O  O33  1  0.639842  0.746649  0.013467  1
  O  O34  1  0.302713  0.923536  0.072838  1
  O  O35  1  0.572838  0.423536  0.802713  1
  O  O36  1  0.802713  0.572838  0.423536  1
  O  O37  1  0.928386  0.701871  0.076093  1
  O  O38  1  0.251392  0.987867  0.364412  1
  O  O39  1  0.423536  0.802713  0.572838  1
  O  O40  1  0.076093  0.928386  0.701871  1
  O  O41  1  0.864412  0.487867  0.751392  1
  O  O42  1  0.487867  0.751392  0.864412  1
  O  O43  1  0.751392  0.864412  0.487867  1
