# generated using pymatgen
data_PNO
_symmetry_space_group_name_H-M   'P 1'
_cell_length_a   4.68731214
_cell_length_b   4.68731214
_cell_length_c   4.67753832
_cell_angle_alpha   62.33070902
_cell_angle_beta   62.33070902
_cell_angle_gamma   90.07448868
_symmetry_Int_Tables_number   1
_chemical_formula_structural   PNO
_chemical_formula_sum   'P2 N2 O2'
_cell_volume   77.46432328
_cell_formula_units_Z   2
loop_
 _symmetry_equiv_pos_site_id
 _symmetry_equiv_pos_as_xyz
  1  'x, y, z'
loop_
 _atom_site_type_symbol
 _atom_site_label
 _atom_site_symmetry_multiplicity
 _atom_site_fract_x
 _atom_site_fract_y
 _atom_site_fract_z
 _atom_site_occupancy
  P  P0  1  0.989700  0.270060  0.000128  1
  P  P1  1  0.270060  0.989700  0.500128  1
  N  N2  1  0.617535  0.258133  0.249211  1
  N  N3  1  0.258133  0.617535  0.749211  1
  O  O4  1  0.997933  0.116639  0.750661  1
  O  O5  1  0.116639  0.997933  0.250661  1
