# generated using pymatgen
data_Hg2GeSe4
_symmetry_space_group_name_H-M   'P 1'
_cell_length_a   7.15338443
_cell_length_b   7.15338443
_cell_length_c   7.15338443
_cell_angle_alpha   131.92466774
_cell_angle_beta   131.92466774
_cell_angle_gamma   70.34803205
_symmetry_Int_Tables_number   1
_chemical_formula_structural   Hg2GeSe4
_chemical_formula_sum   'Hg2 Ge1 Se4'
_cell_volume   198.58233067
_cell_formula_units_Z   1
loop_
 _symmetry_equiv_pos_site_id
 _symmetry_equiv_pos_as_xyz
  1  'x, y, z'
loop_
 _atom_site_type_symbol
 _atom_site_label
 _atom_site_symmetry_multiplicity
 _atom_site_fract_x
 _atom_site_fract_y
 _atom_site_fract_z
 _atom_site_occupancy
  Hg  Hg0  1  0.500000  0.500000  0.000000  1
  Hg  Hg1  1  0.250000  0.750000  0.500000  1
  Ge  Ge2  1  0.750000  0.250000  0.500000  1
  Se  Se3  1  0.362454  0.313947  0.435770  1
  Se  Se4  1  0.073316  0.637546  0.951493  1
  Se  Se5  1  0.878177  0.926684  0.564230  1
  Se  Se6  1  0.686053  0.121823  0.048507  1
