# generated using pymatgen
data_Al5BO9
_symmetry_space_group_name_H-M   'P 1'
_cell_length_a   8.10210933
_cell_length_b   8.10210933
_cell_length_c   7.76573800
_cell_angle_alpha   90.00000000
_cell_angle_beta   90.00000000
_cell_angle_gamma   138.57660668
_symmetry_Int_Tables_number   1
_chemical_formula_structural   Al5BO9
_chemical_formula_sum   'Al10 B2 O18'
_cell_volume   337.27666339
_cell_formula_units_Z   2
loop_
 _symmetry_equiv_pos_site_id
 _symmetry_equiv_pos_as_xyz
  1  'x, y, z'
loop_
 _atom_site_type_symbol
 _atom_site_label
 _atom_site_symmetry_multiplicity
 _atom_site_fract_x
 _atom_site_fract_y
 _atom_site_fract_z
 _atom_site_occupancy
  Al  Al0  1  0.367926  0.136132  0.499780  1
  Al  Al1  1  0.296594  0.703406  0.333666  1
  Al  Al2  1  0.703406  0.296594  0.833666  1
  Al  Al3  1  0.556457  0.443543  0.183185  1
  Al  Al4  1  0.443543  0.556457  0.683185  1
  Al  Al5  1  0.744615  0.255385  0.184930  1
  Al  Al6  1  0.255385  0.744615  0.684930  1
  Al  Al7  1  0.136132  0.367926  0.999780  1
  Al  Al8  1  0.863868  0.632074  0.499780  1
  Al  Al9  1  0.632074  0.863868  0.999780  1
  B  B10  1  0.984356  0.015644  0.720822  1
  B  B11  1  0.015644  0.984356  0.220822  1
  O  O12  1  0.191060  0.808940  0.435881  1
  O  O13  1  0.953613  0.046387  0.093066  1
  O  O14  1  0.046387  0.953613  0.593066  1
  O  O15  1  0.454644  0.545356  0.071780  1
  O  O16  1  0.545356  0.454644  0.571780  1
  O  O17  1  0.669309  0.330691  0.368195  1
  O  O18  1  0.330691  0.669309  0.868195  1
  O  O19  1  0.838221  0.742019  0.284836  1
  O  O20  1  0.808940  0.191060  0.935881  1
  O  O21  1  0.648281  0.351719  0.037239  1
  O  O22  1  0.742019  0.838221  0.784836  1
  O  O23  1  0.257981  0.161779  0.284836  1
  O  O24  1  0.161779  0.257981  0.784836  1
  O  O25  1  0.447527  0.067021  0.700401  1
  O  O26  1  0.067021  0.447527  0.200401  1
  O  O27  1  0.552473  0.932979  0.200401  1
  O  O28  1  0.932979  0.552473  0.700401  1
  O  O29  1  0.351719  0.648281  0.537239  1
