# generated using pymatgen
data_LaTaO4
_symmetry_space_group_name_H-M   'P 1'
_cell_length_a   7.75278203
_cell_length_b   7.75278203
_cell_length_c   5.66807100
_cell_angle_alpha   90.00000000
_cell_angle_beta   90.00000000
_cell_angle_gamma   150.30473493
_symmetry_Int_Tables_number   1
_chemical_formula_structural   LaTaO4
_chemical_formula_sum   'La2 Ta2 O8'
_cell_volume   168.76987666
_cell_formula_units_Z   2
loop_
 _symmetry_equiv_pos_site_id
 _symmetry_equiv_pos_as_xyz
  1  'x, y, z'
loop_
 _atom_site_type_symbol
 _atom_site_label
 _atom_site_symmetry_multiplicity
 _atom_site_fract_x
 _atom_site_fract_y
 _atom_site_fract_z
 _atom_site_occupancy
  La  La0  1  0.824482  0.175518  0.167792  1
  La  La1  1  0.175518  0.824482  0.667792  1
  Ta  Ta2  1  0.584628  0.415372  0.216700  1
  Ta  Ta3  1  0.415372  0.584628  0.716700  1
  O  O4  1  0.911470  0.088530  0.751693  1
  O  O5  1  0.088530  0.911470  0.251693  1
  O  O6  1  0.471288  0.528712  0.055968  1
  O  O7  1  0.528712  0.471288  0.555968  1
  O  O8  1  0.698597  0.301403  0.425748  1
  O  O9  1  0.301403  0.698597  0.925748  1
  O  O10  1  0.663598  0.336402  0.948699  1
  O  O11  1  0.336402  0.663598  0.448699  1
