# generated using pymatgen
data_Al4(B2O5)3
_symmetry_space_group_name_H-M   'P 1'
_cell_length_a   7.03441354
_cell_length_b   7.03441354
_cell_length_c   7.03441361
_cell_angle_alpha   110.88497068
_cell_angle_beta   110.88497068
_cell_angle_gamma   110.88497234
_symmetry_Int_Tables_number   1
_chemical_formula_structural   Al4(B2O5)3
_chemical_formula_sum   'Al4 B6 O15'
_cell_volume   252.96058516
_cell_formula_units_Z   1
loop_
 _symmetry_equiv_pos_site_id
 _symmetry_equiv_pos_as_xyz
  1  'x, y, z'
loop_
 _atom_site_type_symbol
 _atom_site_label
 _atom_site_symmetry_multiplicity
 _atom_site_fract_x
 _atom_site_fract_y
 _atom_site_fract_z
 _atom_site_occupancy
  Al  Al0  1  0.085324  0.803097  0.291966  1
  Al  Al1  1  0.803097  0.291966  0.085324  1
  Al  Al2  1  0.291966  0.085324  0.803097  1
  Al  Al3  1  0.001442  0.001442  0.001442  1
  B  B4  1  0.173881  0.272555  0.500110  1
  B  B5  1  0.272555  0.500110  0.173881  1
  B  B6  1  0.500110  0.173881  0.272555  1
  B  B7  1  0.599017  0.524241  0.857776  1
  B  B8  1  0.524241  0.857776  0.599017  1
  B  B9  1  0.857776  0.599017  0.524241  1
  O  O10  1  0.076280  0.524043  0.104766  1
  O  O11  1  0.690065  0.393473  0.498755  1
  O  O12  1  0.498755  0.690065  0.393473  1
  O  O13  1  0.393473  0.498755  0.690065  1
  O  O14  1  0.104766  0.076280  0.524043  1
  O  O15  1  0.239130  0.280074  0.027946  1
  O  O16  1  0.027946  0.239130  0.280074  1
  O  O17  1  0.015495  0.825148  0.742771  1
  O  O18  1  0.742771  0.015495  0.825148  1
  O  O19  1  0.825148  0.742771  0.015495  1
  O  O20  1  0.577391  0.333979  0.879576  1
  O  O21  1  0.879576  0.577391  0.333979  1
  O  O22  1  0.333979  0.879576  0.577391  1
  O  O23  1  0.280074  0.027946  0.239130  1
  O  O24  1  0.524043  0.104766  0.076280  1
