# generated using pymatgen
data_PNO
_symmetry_space_group_name_H-M   'P 1'
_cell_length_a   4.78361155
_cell_length_b   4.78361155
_cell_length_c   5.28120700
_cell_angle_alpha   90.00000000
_cell_angle_beta   90.00000000
_cell_angle_gamma   119.99999385
_symmetry_Int_Tables_number   1
_chemical_formula_structural   PNO
_chemical_formula_sum   'P3 N3 O3'
_cell_volume   104.65877844
_cell_formula_units_Z   3
loop_
 _symmetry_equiv_pos_site_id
 _symmetry_equiv_pos_as_xyz
  1  'x, y, z'
loop_
 _atom_site_type_symbol
 _atom_site_label
 _atom_site_symmetry_multiplicity
 _atom_site_fract_x
 _atom_site_fract_y
 _atom_site_fract_z
 _atom_site_occupancy
  P  P0  1  0.985906  0.461916  0.328176  1
  P  P1  1  0.538084  0.523990  0.994842  1
  P  P2  1  0.476010  0.014094  0.661509  1
  N  N3  1  0.388331  0.260582  0.782152  1
  N  N4  1  0.872251  0.611669  0.115486  1
  N  N5  1  0.739418  0.127749  0.448819  1
  O  O6  1  0.146478  0.720287  0.556338  1
  O  O7  1  0.279713  0.426191  0.223005  1
  O  O8  1  0.573809  0.853522  0.889671  1
