# generated using pymatgen
data_Ba(NdSe2)2
_symmetry_space_group_name_H-M   'P 1'
_cell_length_a   7.98922332
_cell_length_b   7.98922332
_cell_length_c   7.98922332
_cell_angle_alpha   109.40697012
_cell_angle_beta   109.40697012
_cell_angle_gamma   109.59979823
_symmetry_Int_Tables_number   1
_chemical_formula_structural   Ba(NdSe2)2
_chemical_formula_sum   'Ba2 Nd4 Se8'
_cell_volume   392.54563477
_cell_formula_units_Z   2
loop_
 _symmetry_equiv_pos_site_id
 _symmetry_equiv_pos_as_xyz
  1  'x, y, z'
loop_
 _atom_site_type_symbol
 _atom_site_label
 _atom_site_symmetry_multiplicity
 _atom_site_fract_x
 _atom_site_fract_y
 _atom_site_fract_z
 _atom_site_occupancy
  Ba  Ba0  1  0.500000  0.500000  0.000000  1
  Ba  Ba1  1  0.750000  0.250000  0.500000  1
  Nd  Nd2  1  0.625000  0.998541  0.873541  1
  Nd  Nd3  1  0.001459  0.875000  0.626459  1
  Nd  Nd4  1  0.125000  0.751459  0.126459  1
  Nd  Nd5  1  0.248541  0.375000  0.373541  1
  Se  Se6  1  0.353718  0.108008  0.089466  1
  Se  Se7  1  0.358008  0.103718  0.589466  1
  Se  Se8  1  0.735747  0.646282  0.754289  1
  Se  Se9  1  0.891992  0.981458  0.245711  1
  Se  Se10  1  0.514253  0.768542  0.410534  1
  Se  Se11  1  0.896282  0.485747  0.254289  1
  Se  Se12  1  0.231458  0.641992  0.745711  1
  Se  Se13  1  0.018542  0.264253  0.910534  1
