# generated using pymatgen
data_BaAs2
_symmetry_space_group_name_H-M   'P 1'
_cell_length_a   12.77320800
_cell_length_b   6.68505800
_cell_length_c   8.21441018
_cell_angle_alpha   52.16174037
_cell_angle_beta   90.00000000
_cell_angle_gamma   90.00000000
_symmetry_Int_Tables_number   1
_chemical_formula_structural   BaAs2
_chemical_formula_sum   'Ba6 As12'
_cell_volume   553.94767540
_cell_formula_units_Z   6
loop_
 _symmetry_equiv_pos_site_id
 _symmetry_equiv_pos_as_xyz
  1  'x, y, z'
loop_
 _atom_site_type_symbol
 _atom_site_label
 _atom_site_symmetry_multiplicity
 _atom_site_fract_x
 _atom_site_fract_y
 _atom_site_fract_z
 _atom_site_occupancy
  Ba  Ba0  1  0.227462  0.826598  0.820925  1
  Ba  Ba1  1  0.772538  0.826598  0.320925  1
  Ba  Ba2  1  0.081920  0.554467  0.452952  1
  Ba  Ba3  1  0.918080  0.554467  0.952952  1
  Ba  Ba4  1  0.424068  0.105681  0.250123  1
  Ba  Ba5  1  0.575932  0.105681  0.750123  1
  As  As6  1  0.423660  0.672327  0.158099  1
  As  As7  1  0.576340  0.672327  0.658099  1
  As  As8  1  0.609928  0.531076  0.211869  1
  As  As9  1  0.390072  0.531076  0.711869  1
  As  As10  1  0.343889  0.383987  0.502177  1
  As  As11  1  0.656111  0.383987  0.002177  1
  As  As12  1  0.984517  0.004610  0.991784  1
  As  As13  1  0.015483  0.004610  0.491784  1
  As  As14  1  0.848094  0.207211  0.463424  1
  As  As15  1  0.151906  0.207211  0.963424  1
  As  As16  1  0.841817  0.260144  0.749249  1
  As  As17  1  0.158183  0.260144  0.249249  1
