# generated using pymatgen
data_Li7NbO6
_symmetry_space_group_name_H-M   'P 1'
_cell_length_a   5.89449917
_cell_length_b   5.89449917
_cell_length_c   5.89449955
_cell_angle_alpha   56.83541139
_cell_angle_beta   56.83541139
_cell_angle_gamma   56.83541841
_symmetry_Int_Tables_number   1
_chemical_formula_structural   Li7NbO6
_chemical_formula_sum   'Li7 Nb1 O6'
_cell_volume   134.24335401
_cell_formula_units_Z   1
loop_
 _symmetry_equiv_pos_site_id
 _symmetry_equiv_pos_as_xyz
  1  'x, y, z'
loop_
 _atom_site_type_symbol
 _atom_site_label
 _atom_site_symmetry_multiplicity
 _atom_site_fract_x
 _atom_site_fract_y
 _atom_site_fract_z
 _atom_site_occupancy
  Li  Li0  1  0.123747  0.493430  0.725532  1
  Li  Li1  1  0.489276  0.235601  0.931483  1
  Li  Li2  1  0.235601  0.931483  0.489276  1
  Li  Li3  1  0.654626  0.654626  0.654626  1
  Li  Li4  1  0.725532  0.123747  0.493430  1
  Li  Li5  1  0.493430  0.725532  0.123747  1
  Li  Li6  1  0.931483  0.489276  0.235601  1
  Nb  Nb7  1  0.000212  0.000212  0.000212  1
  O  O8  1  0.230797  0.639337  0.884243  1
  O  O9  1  0.375719  0.071598  0.795317  1
  O  O10  1  0.071598  0.795317  0.375719  1
  O  O11  1  0.884243  0.230797  0.639337  1
  O  O12  1  0.639337  0.884243  0.230797  1
  O  O13  1  0.795317  0.375719  0.071598  1
