# generated using pymatgen
data_KY3F10
_symmetry_space_group_name_H-M   'P 1'
_cell_length_a   6.14735601
_cell_length_b   6.14735601
_cell_length_c   6.14735629
_cell_angle_alpha   93.28005321
_cell_angle_beta   93.28005321
_cell_angle_gamma   93.28005888
_symmetry_Int_Tables_number   1
_chemical_formula_structural   KY3F10
_chemical_formula_sum   'K1 Y3 F10'
_cell_volume   231.12118730
_cell_formula_units_Z   1
loop_
 _symmetry_equiv_pos_site_id
 _symmetry_equiv_pos_as_xyz
  1  'x, y, z'
loop_
 _atom_site_type_symbol
 _atom_site_label
 _atom_site_symmetry_multiplicity
 _atom_site_fract_x
 _atom_site_fract_y
 _atom_site_fract_z
 _atom_site_occupancy
  K  K0  1  0.058779  0.058779  0.058779  1
  Y  Y1  1  0.001477  0.518034  0.518034  1
  Y  Y2  1  0.518034  0.518034  0.001477  1
  Y  Y3  1  0.518034  0.001477  0.518034  1
  F  F4  1  0.469163  0.180884  0.841045  1
  F  F5  1  0.841045  0.180884  0.469163  1
  F  F6  1  0.333216  0.333216  0.333216  1
  F  F7  1  0.180884  0.469163  0.841045  1
  F  F8  1  0.841045  0.469163  0.180884  1
  F  F9  1  0.767647  0.480981  0.767647  1
  F  F10  1  0.180884  0.841045  0.469163  1
  F  F11  1  0.469163  0.841045  0.180884  1
  F  F12  1  0.480981  0.767647  0.767647  1
  F  F13  1  0.767647  0.767647  0.480981  1
