# generated using pymatgen
data_Y2P4O13
_symmetry_space_group_name_H-M   'P 1'
_cell_length_a   9.48734220
_cell_length_b   9.48734220
_cell_length_c   8.65822300
_cell_angle_alpha   90.00000000
_cell_angle_beta   90.00000000
_cell_angle_gamma   135.86579005
_symmetry_Int_Tables_number   1
_chemical_formula_structural   Y2P4O13
_chemical_formula_sum   'Y4 P8 O26'
_cell_volume   542.67541242
_cell_formula_units_Z   2
loop_
 _symmetry_equiv_pos_site_id
 _symmetry_equiv_pos_as_xyz
  1  'x, y, z'
loop_
 _atom_site_type_symbol
 _atom_site_label
 _atom_site_symmetry_multiplicity
 _atom_site_fract_x
 _atom_site_fract_y
 _atom_site_fract_z
 _atom_site_occupancy
  Y  Y0  1  0.895455  0.602429  0.853819  1
  Y  Y1  1  0.602429  0.895455  0.146181  1
  Y  Y2  1  0.104545  0.397571  0.353819  1
  Y  Y3  1  0.397571  0.104545  0.646181  1
  P  P4  1  0.417823  0.097783  0.000306  1
  P  P5  1  0.097783  0.417823  0.999694  1
  P  P6  1  0.582177  0.902217  0.500306  1
  P  P7  1  0.902217  0.582177  0.499694  1
  P  P8  1  0.277612  0.152873  0.272928  1
  P  P9  1  0.152873  0.277612  0.727072  1
  P  P10  1  0.722388  0.847127  0.772928  1
  P  P11  1  0.847127  0.722388  0.227072  1
  O  O12  1  0.481330  0.024544  0.105345  1
  O  O13  1  0.024544  0.481330  0.894655  1
  O  O14  1  0.518670  0.975456  0.605345  1
  O  O15  1  0.975456  0.518670  0.394655  1
  O  O16  1  0.227460  0.930969  0.901433  1
  O  O17  1  0.930969  0.227460  0.098567  1
  O  O18  1  0.772540  0.069031  0.401433  1
  O  O19  1  0.069031  0.772540  0.598567  1
  O  O20  1  0.578582  0.262305  0.883330  1
  O  O21  1  0.262305  0.578582  0.116670  1
  O  O22  1  0.421418  0.737695  0.383330  1
  O  O23  1  0.737695  0.421418  0.616670  1
  O  O24  1  0.082445  0.917555  0.250000  1
  O  O25  1  0.917555  0.082445  0.750000  1
  O  O26  1  0.790169  0.620337  0.393770  1
  O  O27  1  0.620337  0.790169  0.606230  1
  O  O28  1  0.209831  0.379663  0.893770  1
  O  O29  1  0.379663  0.209831  0.106230  1
  O  O30  1  0.733153  0.775331  0.204793  1
  O  O31  1  0.775331  0.733153  0.795207  1
  O  O32  1  0.266847  0.224669  0.704793  1
  O  O33  1  0.224669  0.266847  0.295207  1
  O  O34  1  0.829520  0.599554  0.103385  1
  O  O35  1  0.599554  0.829520  0.896615  1
  O  O36  1  0.170480  0.400446  0.603385  1
  O  O37  1  0.400446  0.170480  0.396615  1
