# generated using pymatgen
data_Ca(NdS2)2
_symmetry_space_group_name_H-M   'P 1'
_cell_length_a   7.43120282
_cell_length_b   7.43120282
_cell_length_c   7.43120282
_cell_angle_alpha   109.64327397
_cell_angle_beta   109.64327397
_cell_angle_gamma   109.12765926
_symmetry_Int_Tables_number   1
_chemical_formula_structural   Ca(NdS2)2
_chemical_formula_sum   'Ca2 Nd4 S8'
_cell_volume   315.89572625
_cell_formula_units_Z   2
loop_
 _symmetry_equiv_pos_site_id
 _symmetry_equiv_pos_as_xyz
  1  'x, y, z'
loop_
 _atom_site_type_symbol
 _atom_site_label
 _atom_site_symmetry_multiplicity
 _atom_site_fract_x
 _atom_site_fract_y
 _atom_site_fract_z
 _atom_site_occupancy
  Ca  Ca0  1  0.500000  0.500000  0.000000  1
  Ca  Ca1  1  0.250000  0.750000  0.500000  1
  Nd  Nd2  1  0.375000  0.996151  0.121151  1
  Nd  Nd3  1  0.003849  0.125000  0.378849  1
  Nd  Nd4  1  0.875000  0.253849  0.878849  1
  Nd  Nd5  1  0.746151  0.625000  0.621151  1
  S  S6  1  0.626082  0.878212  0.895592  1
  S  S7  1  0.628212  0.876082  0.395592  1
  S  S8  1  0.121788  0.017379  0.747869  1
  S  S9  1  0.480490  0.232621  0.604408  1
  S  S10  1  0.767379  0.371788  0.247869  1
  S  S11  1  0.123918  0.519510  0.752131  1
  S  S12  1  0.269510  0.373918  0.252131  1
  S  S13  1  0.982621  0.730490  0.104408  1
