# generated using pymatgen
data_Ca(PrS2)2
_symmetry_space_group_name_H-M   'P 1'
_cell_length_a   7.47414047
_cell_length_b   7.47414047
_cell_length_c   7.47414047
_cell_angle_alpha   109.63547807
_cell_angle_beta   109.63547807
_cell_angle_gamma   109.14320288
_symmetry_Int_Tables_number   1
_chemical_formula_structural   Ca(PrS2)2
_chemical_formula_sum   'Ca2 Pr4 S8'
_cell_volume   321.40394868
_cell_formula_units_Z   2
loop_
 _symmetry_equiv_pos_site_id
 _symmetry_equiv_pos_as_xyz
  1  'x, y, z'
loop_
 _atom_site_type_symbol
 _atom_site_label
 _atom_site_symmetry_multiplicity
 _atom_site_fract_x
 _atom_site_fract_y
 _atom_site_fract_z
 _atom_site_occupancy
  Ca  Ca0  1  0.000000  0.000000  0.000000  1
  Ca  Ca1  1  0.750000  0.250000  0.500000  1
  Pr  Pr2  1  0.375000  0.754305  0.879305  1
  Pr  Pr3  1  0.245695  0.125000  0.620695  1
  Pr  Pr4  1  0.875000  0.495695  0.120695  1
  Pr  Pr5  1  0.504305  0.625000  0.379305  1
  S  S6  1  0.481998  0.229957  0.104841  1
  S  S7  1  0.624884  0.020043  0.752041  1
  S  S8  1  0.770043  0.874884  0.252041  1
  S  S9  1  0.127157  0.375116  0.395159  1
  S  S10  1  0.268002  0.872843  0.247959  1
  S  S11  1  0.622843  0.518002  0.747959  1
  S  S12  1  0.125116  0.377157  0.895159  1
  S  S13  1  0.979957  0.731998  0.604841  1
