# generated using pymatgen
data_Ba(PrSe2)2
_symmetry_space_group_name_H-M   'P 1'
_cell_length_a   8.02095993
_cell_length_b   8.02095993
_cell_length_c   8.02095993
_cell_angle_alpha   109.39875453
_cell_angle_beta   109.39875453
_cell_angle_gamma   109.61625025
_symmetry_Int_Tables_number   1
_chemical_formula_structural   Ba(PrSe2)2
_chemical_formula_sum   'Ba2 Pr4 Se8'
_cell_volume   397.24191072
_cell_formula_units_Z   2
loop_
 _symmetry_equiv_pos_site_id
 _symmetry_equiv_pos_as_xyz
  1  'x, y, z'
loop_
 _atom_site_type_symbol
 _atom_site_label
 _atom_site_symmetry_multiplicity
 _atom_site_fract_x
 _atom_site_fract_y
 _atom_site_fract_z
 _atom_site_occupancy
  Ba  Ba0  1  0.250000  0.750000  0.500000  1
  Ba  Ba1  1  0.000000  0.000000  0.000000  1
  Pr  Pr2  1  0.749317  0.375000  0.874317  1
  Pr  Pr3  1  0.625000  0.499317  0.374317  1
  Pr  Pr4  1  0.500683  0.875000  0.125683  1
  Pr  Pr5  1  0.125000  0.250683  0.625683  1
  Se  Se6  1  0.390839  0.144737  0.909832  1
  Se  Se7  1  0.731007  0.984905  0.590168  1
  Se  Se8  1  0.518993  0.609161  0.753898  1
  Se  Se9  1  0.234905  0.481007  0.090168  1
  Se  Se10  1  0.394737  0.140839  0.409832  1
  Se  Se11  1  0.859161  0.268993  0.253898  1
  Se  Se12  1  0.015095  0.605263  0.746102  1
  Se  Se13  1  0.855263  0.765095  0.246102  1
