# generated using pymatgen
data_Sr2SnS4
_symmetry_space_group_name_H-M   'P 1'
_cell_length_a   6.41002829
_cell_length_b   6.41002829
_cell_length_c   10.11599900
_cell_angle_alpha   90.00000000
_cell_angle_beta   90.00000000
_cell_angle_gamma   110.33263040
_symmetry_Int_Tables_number   1
_chemical_formula_structural   Sr2SnS4
_chemical_formula_sum   'Sr4 Sn2 S8'
_cell_volume   389.75214129
_cell_formula_units_Z   2
loop_
 _symmetry_equiv_pos_site_id
 _symmetry_equiv_pos_as_xyz
  1  'x, y, z'
loop_
 _atom_site_type_symbol
 _atom_site_label
 _atom_site_symmetry_multiplicity
 _atom_site_fract_x
 _atom_site_fract_y
 _atom_site_fract_z
 _atom_site_occupancy
  Sr  Sr0  1  0.791014  0.791014  0.500000  1
  Sr  Sr1  1  0.791014  0.791014  0.000000  1
  Sr  Sr2  1  0.143942  0.521753  0.750000  1
  Sr  Sr3  1  0.521753  0.143942  0.250000  1
  Sn  Sn4  1  0.543644  0.097039  0.750000  1
  Sn  Sn5  1  0.097039  0.543644  0.250000  1
  S  S6  1  0.354926  0.897619  0.556534  1
  S  S7  1  0.897619  0.354926  0.443466  1
  S  S8  1  0.354926  0.897619  0.943466  1
  S  S9  1  0.897619  0.354926  0.056534  1
  S  S10  1  0.617998  0.493559  0.750000  1
  S  S11  1  0.493559  0.617998  0.250000  1
  S  S12  1  0.048124  0.905563  0.250000  1
  S  S13  1  0.905563  0.048124  0.750000  1
