# generated using pymatgen
data_Tl9SbTe6
_symmetry_space_group_name_H-M   'P 1'
_cell_length_a   9.26580921
_cell_length_b   9.26580921
_cell_length_c   9.26580921
_cell_angle_alpha   122.29817428
_cell_angle_beta   122.29817428
_cell_angle_gamma   86.06350096
_symmetry_Int_Tables_number   1
_chemical_formula_structural   Tl9SbTe6
_chemical_formula_sum   'Tl9 Sb1 Te6'
_cell_volume   541.58360439
_cell_formula_units_Z   1
loop_
 _symmetry_equiv_pos_site_id
 _symmetry_equiv_pos_as_xyz
  1  'x, y, z'
loop_
 _atom_site_type_symbol
 _atom_site_label
 _atom_site_symmetry_multiplicity
 _atom_site_fract_x
 _atom_site_fract_y
 _atom_site_fract_z
 _atom_site_occupancy
  Tl  Tl0  1  0.799903  0.006185  0.504704  1
  Tl  Tl1  1  0.984873  0.478882  0.792216  1
  Tl  Tl2  1  0.995823  0.995823  0.000000  1
  Tl  Tl3  1  0.686666  0.192657  0.207784  1
  Tl  Tl4  1  0.501481  0.295199  0.495296  1
  Tl  Tl5  1  0.295199  0.799903  0.793718  1
  Tl  Tl6  1  0.478882  0.686666  0.494009  1
  Tl  Tl7  1  0.192657  0.984873  0.505991  1
  Tl  Tl8  1  0.006185  0.501481  0.206282  1
  Sb  Sb9  1  0.500074  0.500074  0.000000  1
  Te  Te10  1  0.721527  0.721527  0.000000  1
  Te  Te11  1  0.814494  0.641932  0.471903  1
  Te  Te12  1  0.641932  0.170029  0.827438  1
  Te  Te13  1  0.249037  0.249037  0.000000  1
  Te  Te14  1  0.342591  0.814494  0.172562  1
  Te  Te15  1  0.170029  0.342591  0.528097  1
