# generated using pymatgen
data_Sr(YS2)2
_symmetry_space_group_name_H-M   'P 1'
_cell_length_a   7.39651015
_cell_length_b   7.39651015
_cell_length_c   7.39651015
_cell_angle_alpha   109.40191320
_cell_angle_beta   109.40191320
_cell_angle_gamma   109.60992460
_symmetry_Int_Tables_number   1
_chemical_formula_structural   Sr(YS2)2
_chemical_formula_sum   'Sr2 Y4 S8'
_cell_volume   311.49908346
_cell_formula_units_Z   2
loop_
 _symmetry_equiv_pos_site_id
 _symmetry_equiv_pos_as_xyz
  1  'x, y, z'
loop_
 _atom_site_type_symbol
 _atom_site_label
 _atom_site_symmetry_multiplicity
 _atom_site_fract_x
 _atom_site_fract_y
 _atom_site_fract_z
 _atom_site_occupancy
  Sr  Sr0  1  0.500000  0.500000  0.000000  1
  Sr  Sr1  1  0.750000  0.250000  0.500000  1
  Y  Y2  1  0.625000  0.995187  0.870187  1
  Y  Y3  1  0.004813  0.875000  0.629813  1
  Y  Y4  1  0.125000  0.754813  0.129813  1
  Y  Y5  1  0.245187  0.375000  0.370187  1
  S  S6  1  0.239084  0.638102  0.746079  1
  S  S7  1  0.888102  0.989084  0.246079  1
  S  S8  1  0.506995  0.760916  0.399018  1
  S  S9  1  0.892023  0.493005  0.253921  1
  S  S10  1  0.743005  0.642023  0.753921  1
  S  S11  1  0.357977  0.111898  0.100982  1
  S  S12  1  0.010916  0.256995  0.899018  1
  S  S13  1  0.361898  0.107977  0.600982  1
