# generated using pymatgen
data_Sm5CuSe8
_symmetry_space_group_name_H-M   'P 1'
_cell_length_a   7.63009291
_cell_length_b   7.63009291
_cell_length_c   7.63009291
_cell_angle_alpha   110.26834652
_cell_angle_beta   110.26834652
_cell_angle_gamma   107.88846843
_symmetry_Int_Tables_number   1
_chemical_formula_structural   Sm5CuSe8
_chemical_formula_sum   'Sm5 Cu1 Se8'
_cell_volume   341.75887664
_cell_formula_units_Z   1
loop_
 _symmetry_equiv_pos_site_id
 _symmetry_equiv_pos_as_xyz
  1  'x, y, z'
loop_
 _atom_site_type_symbol
 _atom_site_label
 _atom_site_symmetry_multiplicity
 _atom_site_fract_x
 _atom_site_fract_y
 _atom_site_fract_z
 _atom_site_occupancy
  Sm  Sm0  1  0.366740  0.988972  0.117524  1
  Sm  Sm1  1  0.011028  0.128552  0.377768  1
  Sm  Sm2  1  0.871448  0.249216  0.882476  1
  Sm  Sm3  1  0.500000  0.500000  0.000000  1
  Sm  Sm4  1  0.750784  0.633260  0.622232  1
  Cu  Cu5  1  0.250000  0.750000  0.500000  1
  Se  Se6  1  0.269469  0.398302  0.259775  1
  Se  Se7  1  0.138527  0.009694  0.740225  1
  Se  Se8  1  0.490896  0.249465  0.606996  1
  Se  Se9  1  0.116100  0.509104  0.758569  1
  Se  Se10  1  0.750535  0.357530  0.241431  1
  Se  Se11  1  0.601698  0.861473  0.871167  1
  Se  Se12  1  0.990306  0.730531  0.128833  1
  Se  Se13  1  0.642470  0.883900  0.393004  1
