# generated using pymatgen
data_Li5GaO4
_symmetry_space_group_name_H-M   'P 1'
_cell_length_a   6.43139300
_cell_length_b   6.43139300
_cell_length_c   4.74388100
_cell_angle_alpha   90.00000000
_cell_angle_beta   90.00000000
_cell_angle_gamma   90.00000000
_symmetry_Int_Tables_number   1
_chemical_formula_structural   Li5GaO4
_chemical_formula_sum   'Li10 Ga2 O8'
_cell_volume   196.22027655
_cell_formula_units_Z   2
loop_
 _symmetry_equiv_pos_site_id
 _symmetry_equiv_pos_as_xyz
  1  'x, y, z'
loop_
 _atom_site_type_symbol
 _atom_site_label
 _atom_site_symmetry_multiplicity
 _atom_site_fract_x
 _atom_site_fract_y
 _atom_site_fract_z
 _atom_site_occupancy
  Li  Li0  1  0.000000  0.500000  0.976437  1
  Li  Li1  1  0.500000  0.000000  0.023563  1
  Li  Li2  1  0.500000  0.500000  0.000000  1
  Li  Li3  1  0.736173  0.263827  0.000000  1
  Li  Li4  1  0.263827  0.736173  0.000000  1
  Li  Li5  1  0.236173  0.236173  0.500000  1
  Li  Li6  1  0.500000  0.000000  0.523563  1
  Li  Li7  1  0.000000  0.000000  0.500000  1
  Li  Li8  1  0.763827  0.763827  0.500000  1
  Li  Li9  1  0.000000  0.500000  0.476437  1
  Ga  Ga10  1  0.000000  0.000000  0.000000  1
  Ga  Ga11  1  0.500000  0.500000  0.500000  1
  O  O12  1  0.760701  0.004911  0.768686  1
  O  O13  1  0.739299  0.504911  0.731314  1
  O  O14  1  0.239299  0.995089  0.768686  1
  O  O15  1  0.260701  0.495089  0.731314  1
  O  O16  1  0.495089  0.260701  0.268686  1
  O  O17  1  0.504911  0.739299  0.268686  1
  O  O18  1  0.995089  0.239299  0.231314  1
  O  O19  1  0.004911  0.760701  0.231314  1
