# generated using pymatgen
data_Pr2CdS4
_symmetry_space_group_name_H-M   'P 1'
_cell_length_a   7.49654631
_cell_length_b   7.49654631
_cell_length_c   7.49654631
_cell_angle_alpha   110.79182760
_cell_angle_beta   110.79182760
_cell_angle_gamma   106.86111475
_symmetry_Int_Tables_number   1
_chemical_formula_structural   Pr2CdS4
_chemical_formula_sum   'Pr4 Cd2 S8'
_cell_volume   323.80920984
_cell_formula_units_Z   2
loop_
 _symmetry_equiv_pos_site_id
 _symmetry_equiv_pos_as_xyz
  1  'x, y, z'
loop_
 _atom_site_type_symbol
 _atom_site_label
 _atom_site_symmetry_multiplicity
 _atom_site_fract_x
 _atom_site_fract_y
 _atom_site_fract_z
 _atom_site_occupancy
  Pr  Pr0  1  0.375000  0.986557  0.111557  1
  Pr  Pr1  1  0.736557  0.625000  0.611557  1
  Pr  Pr2  1  0.875000  0.263443  0.888443  1
  Pr  Pr3  1  0.013443  0.125000  0.388443  1
  Cd  Cd4  1  0.250000  0.750000  0.500000  1
  Cd  Cd5  1  0.500000  0.500000  0.000000  1
  S  S6  1  0.117832  0.992762  0.734731  1
  S  S7  1  0.491970  0.257238  0.625071  1
  S  S8  1  0.632168  0.866899  0.374929  1
  S  S9  1  0.258030  0.383101  0.265269  1
  S  S10  1  0.007238  0.741970  0.125071  1
  S  S11  1  0.616899  0.882168  0.874929  1
  S  S12  1  0.133101  0.508030  0.765269  1
  S  S13  1  0.742762  0.367832  0.234731  1
