# generated using pymatgen
data_V(PO3)4
_symmetry_space_group_name_H-M   'P 1'
_cell_length_a   13.67264000
_cell_length_b   5.17335100
_cell_length_c   7.15740981
_cell_angle_alpha   81.07888093
_cell_angle_beta   90.00000000
_cell_angle_gamma   90.00000000
_symmetry_Int_Tables_number   1
_chemical_formula_structural   V(PO3)4
_chemical_formula_sum   'V2 P8 O24'
_cell_volume   500.14325135
_cell_formula_units_Z   2
loop_
 _symmetry_equiv_pos_site_id
 _symmetry_equiv_pos_as_xyz
  1  'x, y, z'
loop_
 _atom_site_type_symbol
 _atom_site_label
 _atom_site_symmetry_multiplicity
 _atom_site_fract_x
 _atom_site_fract_y
 _atom_site_fract_z
 _atom_site_occupancy
  V  V0  1  0.735467  0.513587  0.495038  1
  V  V1  1  0.235467  0.486413  0.504962  1
  P  P2  1  0.669039  0.861770  0.095128  1
  P  P3  1  0.169039  0.138230  0.904872  1
  P  P4  1  0.875881  0.997553  0.546203  1
  P  P5  1  0.596914  0.027755  0.448614  1
  P  P6  1  0.375881  0.002447  0.453797  1
  P  P7  1  0.825052  0.222504  0.888249  1
  P  P8  1  0.325052  0.777496  0.111751  1
  P  P9  1  0.096914  0.972245  0.551386  1
  O  O10  1  0.864382  0.996499  0.767750  1
  O  O11  1  0.663237  0.817917  0.549991  1
  O  O12  1  0.364382  0.003501  0.232250  1
  O  O13  1  0.104640  0.968260  0.774001  1
  O  O14  1  0.250794  0.618312  0.249437  1
  O  O15  1  0.857908  0.725963  0.500078  1
  O  O16  1  0.113331  0.198651  0.065901  1
  O  O17  1  0.816411  0.217142  0.436866  1
  O  O18  1  0.611449  0.299609  0.495058  1
  O  O19  1  0.262031  0.947921  0.950949  1
  O  O20  1  0.987901  0.066285  0.501088  1
  O  O21  1  0.402563  0.633232  0.032988  1
  O  O22  1  0.902563  0.366768  0.967012  1
  O  O23  1  0.357908  0.274037  0.499922  1
  O  O24  1  0.487901  0.933715  0.498912  1
  O  O25  1  0.762031  0.052079  0.049051  1
  O  O26  1  0.713946  0.634437  0.237036  1
  O  O27  1  0.163237  0.182083  0.450009  1
  O  O28  1  0.111449  0.700391  0.504942  1
  O  O29  1  0.213946  0.365563  0.762964  1
  O  O30  1  0.316411  0.782858  0.563134  1
  O  O31  1  0.613331  0.801349  0.934099  1
  O  O32  1  0.750794  0.381688  0.750563  1
  O  O33  1  0.604640  0.031740  0.225999  1
