# generated using pymatgen
data_C2O3F2
_symmetry_space_group_name_H-M   'P 1'
_cell_length_a   6.68577300
_cell_length_b   7.28049900
_cell_length_c   16.69393800
_cell_angle_alpha   90.00000000
_cell_angle_beta   90.00000000
_cell_angle_gamma   90.00000000
_symmetry_Int_Tables_number   1
_chemical_formula_structural   C2O3F2
_chemical_formula_sum   'C16 O24 F16'
_cell_volume   812.59018032
_cell_formula_units_Z   8
loop_
 _symmetry_equiv_pos_site_id
 _symmetry_equiv_pos_as_xyz
  1  'x, y, z'
loop_
 _atom_site_type_symbol
 _atom_site_label
 _atom_site_symmetry_multiplicity
 _atom_site_fract_x
 _atom_site_fract_y
 _atom_site_fract_z
 _atom_site_occupancy
  C  C0  1  0.747340  0.564865  0.603952  1
  C  C1  1  0.247340  0.935135  0.396048  1
  C  C2  1  0.252660  0.064865  0.896048  1
  C  C3  1  0.752660  0.435135  0.103952  1
  C  C4  1  0.053296  0.573622  0.532588  1
  C  C5  1  0.553296  0.926378  0.467412  1
  C  C6  1  0.946704  0.073622  0.967412  1
  C  C7  1  0.446704  0.426378  0.032588  1
  C  C8  1  0.900628  0.530823  0.831609  1
  C  C9  1  0.400628  0.969177  0.168391  1
  C  C10  1  0.099372  0.030823  0.668391  1
  C  C11  1  0.599372  0.469177  0.331609  1
  C  C12  1  0.215029  0.546195  0.766911  1
  C  C13  1  0.715029  0.953805  0.233089  1
  C  C14  1  0.784971  0.046195  0.733089  1
  C  C15  1  0.284971  0.453805  0.266911  1
  O  O16  1  0.326812  0.523757  0.204596  1
  O  O17  1  0.826812  0.976243  0.795404  1
  O  O18  1  0.673188  0.023757  0.295404  1
  O  O19  1  0.173188  0.476243  0.704596  1
  O  O20  1  0.682439  0.575408  0.288753  1
  O  O21  1  0.182439  0.924592  0.711247  1
  O  O22  1  0.317561  0.075408  0.211247  1
  O  O23  1  0.817561  0.424592  0.788753  1
  O  O24  1  0.407416  0.267112  0.038730  1
  O  O25  1  0.907416  0.232888  0.961270  1
  O  O26  1  0.592584  0.767112  0.461270  1
  O  O27  1  0.092584  0.732888  0.538730  1
  O  O28  1  0.740977  0.294728  0.140258  1
  O  O29  1  0.240977  0.205272  0.859742  1
  O  O30  1  0.259023  0.794728  0.359742  1
  O  O31  1  0.759023  0.705272  0.640258  1
  O  O32  1  0.406148  0.406377  0.330152  1
  O  O33  1  0.906148  0.093623  0.669848  1
  O  O34  1  0.593852  0.906377  0.169848  1
  O  O35  1  0.093852  0.593623  0.830152  1
  O  O36  1  0.613613  0.520869  0.056191  1
  O  O37  1  0.113613  0.979131  0.943809  1
  O  O38  1  0.386387  0.020869  0.443809  1
  O  O39  1  0.886387  0.479131  0.556191  1
  F  F40  1  0.588650  0.453210  0.604067  1
  F  F41  1  0.088650  0.046790  0.395933  1
  F  F42  1  0.411350  0.953210  0.895933  1
  F  F43  1  0.911350  0.546790  0.104067  1
  F  F44  1  0.169975  0.449358  0.496451  1
  F  F45  1  0.669975  0.050642  0.503549  1
  F  F46  1  0.830025  0.949358  0.003549  1
  F  F47  1  0.330025  0.550642  0.996451  1
  F  F48  1  0.815698  0.613886  0.894656  1
  F  F49  1  0.315698  0.886114  0.105344  1
  F  F50  1  0.184302  0.113886  0.605344  1
  F  F51  1  0.684302  0.386114  0.394656  1
  F  F52  1  0.398656  0.598665  0.788479  1
  F  F53  1  0.898656  0.901335  0.211521  1
  F  F54  1  0.601344  0.098665  0.711521  1
  F  F55  1  0.101344  0.401335  0.288479  1
