# generated using pymatgen
data_Li2B4O7
_symmetry_space_group_name_H-M   'P 1'
_cell_length_a   8.66789029
_cell_length_b   8.66789029
_cell_length_c   8.66789029
_cell_angle_alpha   112.86462301
_cell_angle_beta   112.86462301
_cell_angle_gamma   102.87882239
_symmetry_Int_Tables_number   1
_chemical_formula_structural   Li2B4O7
_chemical_formula_sum   'Li8 B16 O28'
_cell_volume   496.42523302
_cell_formula_units_Z   4
loop_
 _symmetry_equiv_pos_site_id
 _symmetry_equiv_pos_as_xyz
  1  'x, y, z'
loop_
 _atom_site_type_symbol
 _atom_site_label
 _atom_site_symmetry_multiplicity
 _atom_site_fract_x
 _atom_site_fract_y
 _atom_site_fract_z
 _atom_site_occupancy
  Li  Li0  1  0.997436  0.981702  0.654583  1
  Li  Li1  1  0.092853  0.247436  0.515734  1
  Li  Li2  1  0.731702  0.577119  0.484266  1
  Li  Li3  1  0.327119  0.342853  0.345417  1
  Li  Li4  1  0.497436  0.842853  0.015734  1
  Li  Li5  1  0.827119  0.481702  0.984266  1
  Li  Li6  1  0.231702  0.747436  0.154583  1
  Li  Li7  1  0.592853  0.077119  0.845417  1
  B  B8  1  0.626638  0.878804  0.410114  1
  B  B9  1  0.966523  0.876638  0.247833  1
  B  B10  1  0.628804  0.718690  0.752167  1
  B  B11  1  0.468690  0.216523  0.589886  1
  B  B12  1  0.126638  0.716523  0.747833  1
  B  B13  1  0.968690  0.378804  0.252167  1
  B  B14  1  0.128804  0.376638  0.910114  1
  B  B15  1  0.466523  0.218690  0.089886  1
  B  B16  1  0.462504  0.528463  0.160782  1
  B  B17  1  0.051722  0.712504  0.434040  1
  B  B18  1  0.278463  0.617681  0.565960  1
  B  B19  1  0.367681  0.301722  0.839218  1
  B  B20  1  0.962504  0.801722  0.934040  1
  B  B21  1  0.867681  0.028463  0.065960  1
  B  B22  1  0.778463  0.212504  0.660782  1
  B  B23  1  0.551722  0.117681  0.339218  1
  O  O24  1  0.607335  0.701068  0.348646  1
  O  O25  1  0.008689  0.857335  0.406267  1
  O  O26  1  0.451068  0.602422  0.593733  1
  O  O27  1  0.352422  0.258689  0.651354  1
  O  O28  1  0.107335  0.758689  0.906267  1
  O  O29  1  0.852422  0.201068  0.093733  1
  O  O30  1  0.951068  0.357335  0.848646  1
  O  O31  1  0.508689  0.102422  0.151354  1
  O  O32  1  0.768467  0.020071  0.599801  1
  O  O33  1  0.918666  0.018467  0.248396  1
  O  O34  1  0.770071  0.670270  0.751604  1
  O  O35  1  0.420270  0.168666  0.400199  1
  O  O36  1  0.268467  0.668666  0.748396  1
  O  O37  1  0.920270  0.520071  0.251604  1
  O  O38  1  0.270071  0.518467  0.099801  1
  O  O39  1  0.418666  0.170270  0.900199  1
  O  O40  1  0.505760  0.914718  0.283044  1
  O  O41  1  0.972716  0.755760  0.091042  1
  O  O42  1  0.664718  0.881674  0.908958  1
  O  O43  1  0.631674  0.222716  0.716956  1
  O  O44  1  0.005760  0.722716  0.591042  1
  O  O45  1  0.131674  0.414718  0.408958  1
  O  O46  1  0.164718  0.255760  0.783044  1
  O  O47  1  0.472716  0.381674  0.216956  1
  O  O48  1  0.491942  0.491942  0.000000  1
  O  O49  1  0.241942  0.741942  0.500000  1
  O  O50  1  0.991942  0.991942  0.000000  1
  O  O51  1  0.741942  0.241942  0.500000  1
