# generated using pymatgen
data_CrAgS2
_symmetry_space_group_name_H-M   'P 1'
_cell_length_a   3.53702426
_cell_length_b   3.53702545
_cell_length_c   13.79675062
_cell_angle_alpha   82.46515659
_cell_angle_beta   97.53470159
_cell_angle_gamma   119.89701916
_symmetry_Int_Tables_number   1
_chemical_formula_structural   CrAgS2
_chemical_formula_sum   'Cr2 Ag2 S4'
_cell_volume   147.90805673
_cell_formula_units_Z   2
loop_
 _symmetry_equiv_pos_site_id
 _symmetry_equiv_pos_as_xyz
  1  'x, y, z'
loop_
 _atom_site_type_symbol
 _atom_site_label
 _atom_site_symmetry_multiplicity
 _atom_site_fract_x
 _atom_site_fract_y
 _atom_site_fract_z
 _atom_site_occupancy
  Cr  Cr0  1  0.499408  0.500587  0.499472  1
  Cr  Cr1  1  0.999406  0.000605  0.999469  1
  Ag  Ag2  1  0.076261  0.923736  0.230222  1
  Ag  Ag3  1  0.576262  0.423736  0.730228  1
  S  S4  1  0.135067  0.864934  0.408845  1
  S  S5  1  0.635063  0.364940  0.908845  1
  S  S6  1  0.366665  0.633333  0.097859  1
  S  S7  1  0.866668  0.133329  0.597860  1
