# generated using pymatgen
data_Mo3H24C8S13N2
_symmetry_space_group_name_H-M   'P 1'
_cell_length_a   11.16711947
_cell_length_b   11.16711947
_cell_length_c   6.97231300
_cell_angle_alpha   90.00000000
_cell_angle_beta   90.00000000
_cell_angle_gamma   119.99999689
_symmetry_Int_Tables_number   1
_chemical_formula_structural   Mo3H24C8S13N2
_chemical_formula_sum   'Mo3 H24 C8 S13 N2'
_cell_volume   752.99110442
_cell_formula_units_Z   1
loop_
 _symmetry_equiv_pos_site_id
 _symmetry_equiv_pos_as_xyz
  1  'x, y, z'
loop_
 _atom_site_type_symbol
 _atom_site_label
 _atom_site_symmetry_multiplicity
 _atom_site_fract_x
 _atom_site_fract_y
 _atom_site_fract_z
 _atom_site_occupancy
  Mo  Mo0  1  0.000000  0.142142  0.015162  1
  Mo  Mo1  1  0.857858  0.857858  0.015162  1
  Mo  Mo2  1  0.142142  0.000000  0.015162  1
  H  H3  1  0.449528  0.246266  0.487357  1
  H  H4  1  0.203261  0.753734  0.487357  1
  H  H5  1  0.548073  0.432386  0.478404  1
  H  H6  1  0.115687  0.567614  0.478404  1
  H  H7  1  0.206076  0.656559  0.692868  1
  H  H8  1  0.549517  0.343441  0.692868  1
  H  H9  1  0.327718  0.757413  0.197700  1
  H  H10  1  0.242587  0.570305  0.197700  1
  H  H11  1  0.451927  0.884313  0.478404  1
  H  H12  1  0.567614  0.115687  0.478404  1
  H  H13  1  0.450483  0.793924  0.692868  1
  H  H14  1  0.656559  0.206076  0.692868  1
  H  H15  1  0.429695  0.672282  0.197700  1
  H  H16  1  0.550472  0.796739  0.487357  1
  H  H17  1  0.753734  0.203261  0.487357  1
  H  H18  1  0.570305  0.242587  0.197700  1
  H  H19  1  0.672282  0.429695  0.197700  1
  H  H20  1  0.796739  0.550472  0.487357  1
  H  H21  1  0.246266  0.449528  0.487357  1
  H  H22  1  0.793924  0.450483  0.692868  1
  H  H23  1  0.343441  0.549517  0.692868  1
  H  H24  1  0.757413  0.327718  0.197700  1
  H  H25  1  0.884313  0.451927  0.478404  1
  H  H26  1  0.432386  0.548073  0.478404  1
  C  C27  1  0.543386  0.338807  0.535693  1
  C  C28  1  0.204579  0.661193  0.535693  1
  C  C29  1  0.333333  0.666667  0.245883  1
  C  C30  1  0.456614  0.795421  0.535693  1
  C  C31  1  0.661193  0.204579  0.535693  1
  C  C32  1  0.666667  0.333333  0.245883  1
  C  C33  1  0.795421  0.456614  0.535693  1
  C  C34  1  0.338807  0.543386  0.535693  1
  S  S35  1  0.000000  0.826126  0.775416  1
  S  S36  1  0.173874  0.173874  0.775416  1
  S  S37  1  0.000000  0.742132  0.033899  1
  S  S38  1  0.257868  0.257868  0.033899  1
  S  S39  1  0.000000  0.362841  0.951441  1
  S  S40  1  0.637159  0.637159  0.951441  1
  S  S41  1  0.000000  0.309230  0.235350  1
  S  S42  1  0.690770  0.690770  0.235350  1
  S  S43  1  0.000000  0.000000  0.269841  1
  S  S44  1  0.309230  0.000000  0.235350  1
  S  S45  1  0.362841  0.000000  0.951441  1
  S  S46  1  0.742132  0.000000  0.033899  1
  S  S47  1  0.826126  0.000000  0.775416  1
  N  N48  1  0.333333  0.666667  0.461982  1
  N  N49  1  0.666667  0.333333  0.461982  1
