# generated using pymatgen
data_CaNdTiMnO6
_symmetry_space_group_name_H-M   'P 1'
_cell_length_a   5.67314500
_cell_length_b   5.51242900
_cell_length_c   9.34062971
_cell_angle_alpha   54.46292332
_cell_angle_beta   90.00000000
_cell_angle_gamma   90.00000000
_symmetry_Int_Tables_number   1
_chemical_formula_structural   CaNdTiMnO6
_chemical_formula_sum   'Ca2 Nd2 Ti2 Mn2 O12'
_cell_volume   237.69961771
_cell_formula_units_Z   2
loop_
 _symmetry_equiv_pos_site_id
 _symmetry_equiv_pos_as_xyz
  1  'x, y, z'
loop_
 _atom_site_type_symbol
 _atom_site_label
 _atom_site_symmetry_multiplicity
 _atom_site_fract_x
 _atom_site_fract_y
 _atom_site_fract_z
 _atom_site_occupancy
  Ca  Ca0  1  0.701081  0.237958  0.249989  1
  Ca  Ca1  1  0.298919  0.237958  0.749989  1
  Nd  Nd2  1  0.197085  0.763471  0.249788  1
  Nd  Nd3  1  0.802915  0.763471  0.749788  1
  Ti  Ti4  1  0.744058  0.000685  0.000885  1
  Ti  Ti5  1  0.255942  0.000685  0.500885  1
  Mn  Mn6  1  0.747564  0.501883  0.499475  1
  Mn  Mn7  1  0.252436  0.501883  0.999475  1
  O  O8  1  0.773474  0.657761  0.254118  1
  O  O9  1  0.032803  0.842762  0.953786  1
  O  O10  1  0.051150  0.232899  0.546695  1
  O  O11  1  0.551767  0.765784  0.952683  1
  O  O12  1  0.535112  0.154746  0.546682  1
  O  O13  1  0.275632  0.342052  0.245900  1
  O  O14  1  0.226526  0.657761  0.754118  1
  O  O15  1  0.967197  0.842762  0.453786  1
  O  O16  1  0.948850  0.232899  0.046695  1
  O  O17  1  0.448233  0.765784  0.452683  1
  O  O18  1  0.464888  0.154746  0.046682  1
  O  O19  1  0.724368  0.342052  0.745900  1
