# generated using pymatgen
data_K2MnH4(Cl2O)2
_symmetry_space_group_name_H-M   'P 1'
_cell_length_a   6.71163200
_cell_length_b   6.71166168
_cell_length_c   21.05724920
_cell_angle_alpha   90.00009378
_cell_angle_beta   89.99952124
_cell_angle_gamma   76.58747674
_symmetry_Int_Tables_number   1
_chemical_formula_structural   K2MnH4(Cl2O)2
_chemical_formula_sum   'K8 Mn4 H16 Cl16 O8'
_cell_volume   922.67764248
_cell_formula_units_Z   4
loop_
 _symmetry_equiv_pos_site_id
 _symmetry_equiv_pos_as_xyz
  1  'x, y, z'
loop_
 _atom_site_type_symbol
 _atom_site_label
 _atom_site_symmetry_multiplicity
 _atom_site_fract_x
 _atom_site_fract_y
 _atom_site_fract_z
 _atom_site_occupancy
  K  K0  1  0.999914  0.500047  0.625008  1
  K  K1  1  0.999932  0.500092  0.125019  1
  K  K2  1  0.499909  0.000106  0.875032  1
  K  K3  1  0.499855  0.000011  0.374991  1
  K  K4  1  0.000074  0.500096  0.374984  1
  K  K5  1  0.999877  0.500014  0.875030  1
  K  K6  1  0.499934  0.000057  0.625005  1
  K  K7  1  0.499828  0.000112  0.125007  1
  Mn  Mn8  1  0.000192  0.999815  0.499838  1
  Mn  Mn9  1  0.500004  0.499981  0.750004  1
  Mn  Mn10  1  0.999919  0.000050  0.999990  1
  Mn  Mn11  1  0.500528  0.499791  0.250008  1
  H  H12  1  0.738113  0.411826  0.499997  1
  H  H13  1  0.738199  0.411723  0.000004  1
  H  H14  1  0.238053  0.911894  0.750010  1
  H  H15  1  0.238263  0.911653  0.250009  1
  H  H16  1  0.336755  0.663231  0.537521  1
  H  H17  1  0.336726  0.663255  0.037510  1
  H  H18  1  0.836704  0.163274  0.787512  1
  H  H19  1  0.836981  0.163021  0.287547  1
  H  H20  1  0.336789  0.663200  0.462492  1
  H  H21  1  0.336899  0.663077  0.962474  1
  H  H22  1  0.836702  0.163279  0.712494  1
  H  H23  1  0.836927  0.163074  0.212489  1
  H  H24  1  0.588186  0.261871  0.499997  1
  H  H25  1  0.588249  0.261799  0.000003  1
  H  H26  1  0.088091  0.761930  0.750011  1
  H  H27  1  0.088439  0.761669  0.250009  1
  Cl  Cl28  1  0.491707  0.508318  0.371809  1
  Cl  Cl29  1  0.491573  0.508408  0.871789  1
  Cl  Cl30  1  0.991628  0.008355  0.621803  1
  Cl  Cl31  1  0.991587  0.008377  0.121740  1
  Cl  Cl32  1  0.764844  0.748166  0.500007  1
  Cl  Cl33  1  0.764834  0.748131  0.999968  1
  Cl  Cl34  1  0.264804  0.248181  0.750021  1
  Cl  Cl35  1  0.264979  0.248207  0.250021  1
  Cl  Cl36  1  0.251823  0.235142  0.500006  1
  Cl  Cl37  1  0.251822  0.235118  0.999969  1
  Cl  Cl38  1  0.751807  0.735173  0.750021  1
  Cl  Cl39  1  0.751915  0.735174  0.250021  1
  Cl  Cl40  1  0.491595  0.508392  0.628222  1
  Cl  Cl41  1  0.491705  0.508337  0.128209  1
  Cl  Cl42  1  0.991646  0.008322  0.878150  1
  Cl  Cl43  1  0.991571  0.008402  0.378218  1
  O  O44  1  0.266135  0.733851  0.499997  1
  O  O45  1  0.266202  0.733792  0.999975  1
  O  O46  1  0.766044  0.233937  0.750009  1
  O  O47  1  0.766370  0.233626  0.250021  1
  O  O48  1  0.733781  0.266215  0.500017  1
  O  O49  1  0.733859  0.266111  0.999978  1
  O  O50  1  0.233686  0.766299  0.750013  1
  O  O51  1  0.234037  0.766019  0.250022  1
