# generated using pymatgen
data_LiCaPrTeO6
_symmetry_space_group_name_H-M   'P 1'
_cell_length_a   5.84494300
_cell_length_b   5.56712500
_cell_length_c   9.52306468
_cell_angle_alpha   54.89942791
_cell_angle_beta   90.00000000
_cell_angle_gamma   90.00000000
_symmetry_Int_Tables_number   1
_chemical_formula_structural   LiCaPrTeO6
_chemical_formula_sum   'Li2 Ca2 Pr2 Te2 O12'
_cell_volume   253.52320938
_cell_formula_units_Z   2
loop_
 _symmetry_equiv_pos_site_id
 _symmetry_equiv_pos_as_xyz
  1  'x, y, z'
loop_
 _atom_site_type_symbol
 _atom_site_label
 _atom_site_symmetry_multiplicity
 _atom_site_fract_x
 _atom_site_fract_y
 _atom_site_fract_z
 _atom_site_occupancy
  Li  Li0  1  0.280006  0.502499  0.997080  1
  Li  Li1  1  0.719994  0.502499  0.497080  1
  Ca  Ca2  1  0.693586  0.257763  0.252382  1
  Ca  Ca3  1  0.306414  0.257763  0.752382  1
  Pr  Pr4  1  0.181496  0.732832  0.252742  1
  Pr  Pr5  1  0.818504  0.732832  0.752742  1
  Te  Te6  1  0.739997  0.999519  0.000643  1
  Te  Te7  1  0.260003  0.999519  0.500643  1
  O  O8  1  0.708989  0.143557  0.760187  1
  O  O9  1  0.458197  0.776595  0.049904  1
  O  O10  1  0.435140  0.335597  0.453477  1
  O  O11  1  0.922513  0.667911  0.045759  1
  O  O12  1  0.976742  0.229585  0.447245  1
  O  O13  1  0.222777  0.854143  0.740581  1
  O  O14  1  0.291011  0.143557  0.260187  1
  O  O15  1  0.541803  0.776595  0.549904  1
  O  O16  1  0.564860  0.335597  0.953477  1
  O  O17  1  0.077487  0.667911  0.545759  1
  O  O18  1  0.023258  0.229585  0.947245  1
  O  O19  1  0.777223  0.854143  0.240581  1
