# generated using pymatgen
data_SiO2
_symmetry_space_group_name_H-M   'P 1'
_cell_length_a   5.65903300
_cell_length_b   4.94642200
_cell_length_c   5.38937287
_cell_angle_alpha   71.37840169
_cell_angle_beta   90.00000000
_cell_angle_gamma   90.00000000
_symmetry_Int_Tables_number   1
_chemical_formula_structural   SiO2
_chemical_formula_sum   'Si4 O8'
_cell_volume   142.96137710
_cell_formula_units_Z   4
loop_
 _symmetry_equiv_pos_site_id
 _symmetry_equiv_pos_as_xyz
  1  'x, y, z'
loop_
 _atom_site_type_symbol
 _atom_site_label
 _atom_site_symmetry_multiplicity
 _atom_site_fract_x
 _atom_site_fract_y
 _atom_site_fract_z
 _atom_site_occupancy
  Si  Si0  1  0.500000  0.543955  0.460729  1
  Si  Si1  1  0.000000  0.529593  0.488003  1
  Si  Si2  1  0.000000  0.958036  0.775137  1
  Si  Si3  1  0.500000  0.012944  0.971463  1
  O  O4  1  0.754980  0.455825  0.357887  1
  O  O5  1  0.737558  0.859461  0.898507  1
  O  O6  1  0.500000  0.356929  0.783977  1
  O  O7  1  0.262442  0.859461  0.898507  1
  O  O8  1  0.500000  0.900909  0.301200  1
  O  O9  1  0.245020  0.455825  0.357887  1
  O  O10  1  0.000000  0.849180  0.514559  1
  O  O11  1  0.000000  0.289983  0.775124  1
