# generated using pymatgen
data_NbTlBr4O
_symmetry_space_group_name_H-M   'P 1'
_cell_length_a   7.25835908
_cell_length_b   7.25835908
_cell_length_c   7.84046268
_cell_angle_alpha   73.70878675
_cell_angle_beta   73.70878675
_cell_angle_gamma   32.67065748
_symmetry_Int_Tables_number   1
_chemical_formula_structural   NbTlBr4O
_chemical_formula_sum   'Nb1 Tl1 Br4 O1'
_cell_volume   213.23694872
_cell_formula_units_Z   1
loop_
 _symmetry_equiv_pos_site_id
 _symmetry_equiv_pos_as_xyz
  1  'x, y, z'
loop_
 _atom_site_type_symbol
 _atom_site_label
 _atom_site_symmetry_multiplicity
 _atom_site_fract_x
 _atom_site_fract_y
 _atom_site_fract_z
 _atom_site_occupancy
  Nb  Nb0  1  0.556809  0.443191  0.500000  1
  Tl  Tl1  1  0.000313  0.999687  0.000000  1
  Br  Br2  1  0.625420  0.651540  0.200104  1
  Br  Br3  1  0.352544  0.379454  0.335441  1
  Br  Br4  1  0.348460  0.374580  0.799896  1
  Br  Br5  1  0.620546  0.647456  0.664559  1
  O  O6  1  0.995208  0.004792  0.500000  1
