# generated using pymatgen
data_KTa(AgSe2)2
_symmetry_space_group_name_H-M   'P 1'
_cell_length_a   10.42076555
_cell_length_b   10.42076555
_cell_length_c   8.37579900
_cell_angle_alpha   90.00000000
_cell_angle_beta   90.00000000
_cell_angle_gamma   145.59204863
_symmetry_Int_Tables_number   1
_chemical_formula_structural   KTa(AgSe2)2
_chemical_formula_sum   'K2 Ta2 Ag4 Se8'
_cell_volume   513.96860338
_cell_formula_units_Z   2
loop_
 _symmetry_equiv_pos_site_id
 _symmetry_equiv_pos_as_xyz
  1  'x, y, z'
loop_
 _atom_site_type_symbol
 _atom_site_label
 _atom_site_symmetry_multiplicity
 _atom_site_fract_x
 _atom_site_fract_y
 _atom_site_fract_z
 _atom_site_occupancy
  K  K0  1  0.453541  0.821959  0.750000  1
  K  K1  1  0.821959  0.453541  0.250000  1
  Ta  Ta2  1  0.522601  0.297154  0.750000  1
  Ta  Ta3  1  0.297154  0.522601  0.250000  1
  Ag  Ag4  1  0.373571  0.373571  0.000000  1
  Ag  Ag5  1  0.373571  0.373571  0.500000  1
  Ag  Ag6  1  0.024638  0.795516  0.750000  1
  Ag  Ag7  1  0.795516  0.024638  0.250000  1
  Se  Se8  1  0.650824  0.630912  0.750000  1
  Se  Se9  1  0.630912  0.650824  0.250000  1
  Se  Se10  1  0.306658  0.067933  0.993561  1
  Se  Se11  1  0.067933  0.306658  0.493561  1
  Se  Se12  1  0.410578  0.839372  0.250000  1
  Se  Se13  1  0.067933  0.306658  0.006439  1
  Se  Se14  1  0.306658  0.067933  0.506439  1
  Se  Se15  1  0.839372  0.410578  0.750000  1
