# generated using pymatgen
data_SrH2(CO2)2
_symmetry_space_group_name_H-M   'P 1'
_cell_length_a   7.00133400
_cell_length_b   7.38516700
_cell_length_c   8.84725000
_cell_angle_alpha   90.00000000
_cell_angle_beta   90.00000000
_cell_angle_gamma   90.00000000
_symmetry_Int_Tables_number   1
_chemical_formula_structural   SrH2(CO2)2
_chemical_formula_sum   'Sr4 H8 C8 O16'
_cell_volume   457.45609264
_cell_formula_units_Z   4
loop_
 _symmetry_equiv_pos_site_id
 _symmetry_equiv_pos_as_xyz
  1  'x, y, z'
loop_
 _atom_site_type_symbol
 _atom_site_label
 _atom_site_symmetry_multiplicity
 _atom_site_fract_x
 _atom_site_fract_y
 _atom_site_fract_z
 _atom_site_occupancy
  Sr  Sr0  1  0.004093  0.241225  0.664628  1
  Sr  Sr1  1  0.995907  0.741225  0.835372  1
  Sr  Sr2  1  0.504093  0.258775  0.335372  1
  Sr  Sr3  1  0.495907  0.758775  0.164628  1
  H  H4  1  0.471959  0.004171  0.778571  1
  H  H5  1  0.709949  0.206465  0.989155  1
  H  H6  1  0.528041  0.504171  0.721429  1
  H  H7  1  0.028041  0.995829  0.278571  1
  H  H8  1  0.971959  0.495829  0.221429  1
  H  H9  1  0.790051  0.793535  0.489155  1
  H  H10  1  0.290051  0.706465  0.510845  1
  H  H11  1  0.209949  0.293535  0.010845  1
  C  C12  1  0.386138  0.443090  0.699357  1
  C  C13  1  0.886138  0.056910  0.300643  1
  C  C14  1  0.230431  0.144572  0.008176  1
  C  C15  1  0.269569  0.855428  0.508176  1
  C  C16  1  0.769569  0.644572  0.491824  1
  C  C17  1  0.113862  0.556910  0.199357  1
  C  C18  1  0.613862  0.943090  0.800643  1
  C  C19  1  0.730431  0.355428  0.991824  1
  O  O20  1  0.154887  0.921878  0.604216  1
  O  O21  1  0.743801  0.997497  0.226610  1
  O  O22  1  0.845113  0.421878  0.895784  1
  O  O23  1  0.256199  0.497497  0.273390  1
  O  O24  1  0.125592  0.684599  0.103213  1
  O  O25  1  0.361951  0.941490  0.407520  1
  O  O26  1  0.374408  0.315401  0.603213  1
  O  O27  1  0.625592  0.815401  0.896787  1
  O  O28  1  0.861951  0.558510  0.592480  1
  O  O29  1  0.874408  0.184599  0.396787  1
  O  O30  1  0.756199  0.002503  0.726610  1
  O  O31  1  0.138049  0.058510  0.907520  1
  O  O32  1  0.345113  0.078122  0.104216  1
  O  O33  1  0.654887  0.578122  0.395784  1
  O  O34  1  0.638049  0.441490  0.092480  1
  O  O35  1  0.243801  0.502503  0.773390  1
