# generated using pymatgen
data_Na4CO4
_symmetry_space_group_name_H-M   'P 1'
_cell_length_a   5.19300233
_cell_length_b   5.19300233
_cell_length_c   5.43570738
_cell_angle_alpha   77.67473124
_cell_angle_beta   77.67473124
_cell_angle_gamma   95.19661941
_symmetry_Int_Tables_number   1
_chemical_formula_structural   Na4CO4
_chemical_formula_sum   'Na4 C1 O4'
_cell_volume   138.47632290
_cell_formula_units_Z   1
loop_
 _symmetry_equiv_pos_site_id
 _symmetry_equiv_pos_as_xyz
  1  'x, y, z'
loop_
 _atom_site_type_symbol
 _atom_site_label
 _atom_site_symmetry_multiplicity
 _atom_site_fract_x
 _atom_site_fract_y
 _atom_site_fract_z
 _atom_site_occupancy
  Na  Na0  1  0.470124  0.906736  0.551296  1
  Na  Na1  1  0.615556  0.030080  0.036534  1
  Na  Na2  1  0.906736  0.470124  0.551296  1
  Na  Na3  1  0.030080  0.615556  0.036534  1
  C  C4  1  0.012677  0.012677  0.463732  1
  O  O5  1  0.853516  0.158678  0.316882  1
  O  O6  1  0.820226  0.820226  0.708951  1
  O  O7  1  0.172646  0.172646  0.556337  1
  O  O8  1  0.158678  0.853516  0.316882  1
