# generated using pymatgen
data_BaSi6N8O
_symmetry_space_group_name_H-M   'P 1'
_cell_length_a   6.82911417
_cell_length_b   6.82911417
_cell_length_c   6.82911417
_cell_angle_alpha   138.21066050
_cell_angle_beta   106.49901585
_cell_angle_gamma   88.30386151
_symmetry_Int_Tables_number   1
_chemical_formula_structural   BaSi6N8O
_chemical_formula_sum   'Ba1 Si6 N8 O1'
_cell_volume   195.05520832
_cell_formula_units_Z   1
loop_
 _symmetry_equiv_pos_site_id
 _symmetry_equiv_pos_as_xyz
  1  'x, y, z'
loop_
 _atom_site_type_symbol
 _atom_site_label
 _atom_site_symmetry_multiplicity
 _atom_site_fract_x
 _atom_site_fract_y
 _atom_site_fract_z
 _atom_site_occupancy
  Ba  Ba0  1  0.500000  0.496543  0.996543  1
  Si  Si1  1  0.355245  0.179804  0.217579  1
  Si  Si2  1  0.160711  0.685581  0.524870  1
  Si  Si3  1  0.962225  0.179804  0.824559  1
  Si  Si4  1  0.839289  0.364158  0.524870  1
  Si  Si5  1  0.037775  0.862334  0.217579  1
  Si  Si6  1  0.644755  0.862334  0.824559  1
  N  N7  1  0.274065  0.052290  0.326355  1
  N  N8  1  0.046107  0.903349  0.506300  1
  N  N9  1  0.725935  0.052290  0.778225  1
  N  N10  1  0.812948  0.987727  0.174779  1
  N  N11  1  0.397048  0.903349  0.857241  1
  N  N12  1  0.187052  0.361831  0.174779  1
  N  N13  1  0.602952  0.460193  0.506300  1
  N  N14  1  0.953893  0.460193  0.857241  1
  O  O15  1  0.000000  0.611723  0.611723  1
