# generated using pymatgen
data_LiAsS2
_symmetry_space_group_name_H-M   'P 1'
_cell_length_a   6.59014832
_cell_length_b   6.59014832
_cell_length_c   5.39028942
_cell_angle_alpha   68.85143249
_cell_angle_beta   68.85143249
_cell_angle_gamma   48.71454222
_symmetry_Int_Tables_number   1
_chemical_formula_structural   LiAsS2
_chemical_formula_sum   'Li2 As2 S4'
_cell_volume   161.52706403
_cell_formula_units_Z   2
loop_
 _symmetry_equiv_pos_site_id
 _symmetry_equiv_pos_as_xyz
  1  'x, y, z'
loop_
 _atom_site_type_symbol
 _atom_site_label
 _atom_site_symmetry_multiplicity
 _atom_site_fract_x
 _atom_site_fract_y
 _atom_site_fract_z
 _atom_site_occupancy
  Li  Li0  1  0.767312  0.233948  0.998798  1
  Li  Li1  1  0.233948  0.767312  0.498798  1
  As  As2  1  0.943413  0.499119  0.317248  1
  As  As3  1  0.499119  0.943413  0.817248  1
  S  S4  1  0.760623  0.282302  0.476006  1
  S  S5  1  0.282302  0.760623  0.976006  1
  S  S6  1  0.961344  0.559028  0.714198  1
  S  S7  1  0.559028  0.961344  0.214198  1
