# generated using pymatgen
data_CaH2(CO2)2
_symmetry_space_group_name_H-M   'P 1'
_cell_length_a   6.87167700
_cell_length_b   6.87167700
_cell_length_c   9.69846300
_cell_angle_alpha   90.00000000
_cell_angle_beta   90.00000000
_cell_angle_gamma   90.00000000
_symmetry_Int_Tables_number   1
_chemical_formula_structural   CaH2(CO2)2
_chemical_formula_sum   'Ca4 H8 C8 O16'
_cell_volume   457.96088743
_cell_formula_units_Z   4
loop_
 _symmetry_equiv_pos_site_id
 _symmetry_equiv_pos_as_xyz
  1  'x, y, z'
loop_
 _atom_site_type_symbol
 _atom_site_label
 _atom_site_symmetry_multiplicity
 _atom_site_fract_x
 _atom_site_fract_y
 _atom_site_fract_z
 _atom_site_occupancy
  Ca  Ca0  1  0.783182  0.783182  0.500000  1
  Ca  Ca1  1  0.216818  0.216818  0.000000  1
  Ca  Ca2  1  0.283182  0.716818  0.250000  1
  Ca  Ca3  1  0.716818  0.283182  0.750000  1
  H  H4  1  0.857079  0.329694  0.329486  1
  H  H5  1  0.142921  0.670306  0.829486  1
  H  H6  1  0.357079  0.170306  0.420514  1
  H  H7  1  0.170306  0.357079  0.579486  1
  H  H8  1  0.642921  0.829694  0.920514  1
  H  H9  1  0.670306  0.142921  0.170514  1
  H  H10  1  0.829694  0.642921  0.079486  1
  H  H11  1  0.329694  0.857079  0.670514  1
  C  C12  1  0.304655  0.205782  0.315385  1
  C  C13  1  0.695345  0.794218  0.815385  1
  C  C14  1  0.804655  0.294218  0.434615  1
  C  C15  1  0.195345  0.705782  0.934615  1
  C  C16  1  0.794218  0.695345  0.184615  1
  C  C17  1  0.205782  0.304655  0.684615  1
  C  C18  1  0.705782  0.195345  0.065385  1
  C  C19  1  0.294218  0.804655  0.565385  1
  O  O20  1  0.618166  0.720336  0.216240  1
  O  O21  1  0.224761  0.564860  0.017501  1
  O  O22  1  0.720336  0.618166  0.783760  1
  O  O23  1  0.724761  0.935140  0.732499  1
  O  O24  1  0.064860  0.275239  0.767501  1
  O  O25  1  0.779664  0.118166  0.466240  1
  O  O26  1  0.118166  0.779664  0.533760  1
  O  O27  1  0.881834  0.220336  0.033760  1
  O  O28  1  0.275239  0.064860  0.232499  1
  O  O29  1  0.381834  0.279664  0.716240  1
  O  O30  1  0.220336  0.881834  0.966240  1
  O  O31  1  0.279664  0.381834  0.283760  1
  O  O32  1  0.564860  0.224761  0.982499  1
  O  O33  1  0.935140  0.724761  0.267501  1
  O  O34  1  0.775239  0.435140  0.517501  1
  O  O35  1  0.435140  0.775239  0.482499  1
