# generated using pymatgen
data_CaCO3
_symmetry_space_group_name_H-M   'P 1'
_cell_length_a   5.41857184
_cell_length_b   5.41857184
_cell_length_c   3.78627000
_cell_angle_alpha   90.00000000
_cell_angle_beta   90.00000000
_cell_angle_gamma   109.56616880
_symmetry_Int_Tables_number   1
_chemical_formula_structural   CaCO3
_chemical_formula_sum   'Ca2 C2 O6'
_cell_volume   104.74899597
_cell_formula_units_Z   2
loop_
 _symmetry_equiv_pos_site_id
 _symmetry_equiv_pos_as_xyz
  1  'x, y, z'
loop_
 _atom_site_type_symbol
 _atom_site_label
 _atom_site_symmetry_multiplicity
 _atom_site_fract_x
 _atom_site_fract_y
 _atom_site_fract_z
 _atom_site_occupancy
  Ca  Ca0  1  0.194949  0.805051  0.750000  1
  Ca  Ca1  1  0.805051  0.194949  0.250000  1
  C  C2  1  0.640759  0.640759  0.000000  1
  C  C3  1  0.359241  0.359241  0.500000  1
  O  O4  1  0.583496  0.416504  0.750000  1
  O  O5  1  0.416504  0.583496  0.250000  1
  O  O6  1  0.134293  0.351789  0.662584  1
  O  O7  1  0.351789  0.134293  0.337416  1
  O  O8  1  0.865707  0.648211  0.162584  1
  O  O9  1  0.648211  0.865707  0.837416  1
