# generated using pymatgen
data_RbLaSi(CN2)4
_symmetry_space_group_name_H-M   'P 1'
_cell_length_a   7.01689481
_cell_length_b   7.01689481
_cell_length_c   7.01689481
_cell_angle_alpha   104.18894042
_cell_angle_beta   104.18894042
_cell_angle_gamma   120.64781107
_symmetry_Int_Tables_number   1
_chemical_formula_structural   RbLaSi(CN2)4
_chemical_formula_sum   'Rb1 La1 Si1 C4 N8'
_cell_volume   258.24520506
_cell_formula_units_Z   1
loop_
 _symmetry_equiv_pos_site_id
 _symmetry_equiv_pos_as_xyz
  1  'x, y, z'
loop_
 _atom_site_type_symbol
 _atom_site_label
 _atom_site_symmetry_multiplicity
 _atom_site_fract_x
 _atom_site_fract_y
 _atom_site_fract_z
 _atom_site_occupancy
  Rb  Rb0  1  0.500000  0.500000  0.000000  1
  La  La1  1  0.250000  0.750000  0.500000  1
  Si  Si2  1  0.750000  0.250000  0.500000  1
  C  C3  1  0.058861  0.145916  0.469709  1
  C  C4  1  0.410848  0.941139  0.087055  1
  C  C5  1  0.854084  0.323793  0.912945  1
  C  C6  1  0.676207  0.589152  0.530291  1
  N  N7  1  0.004568  0.430644  0.099800  1
  N  N8  1  0.492644  0.972116  0.284020  1
  N  N9  1  0.791376  0.507356  0.479472  1
  N  N10  1  0.027884  0.311904  0.520528  1
  N  N11  1  0.569356  0.669157  0.573925  1
  N  N12  1  0.095232  0.995432  0.426075  1
  N  N13  1  0.688096  0.208624  0.715980  1
  N  N14  1  0.330843  0.904768  0.900200  1
