# generated using pymatgen
data_SiO2
_symmetry_space_group_name_H-M   'P 1'
_cell_length_a   5.03895100
_cell_length_b   5.51942795
_cell_length_c   6.23271426
_cell_angle_alpha   89.29506293
_cell_angle_beta   89.83510024
_cell_angle_gamma   89.39181181
_symmetry_Int_Tables_number   1
_chemical_formula_structural   SiO2
_chemical_formula_sum   'Si4 O8'
_cell_volume   173.32150122
_cell_formula_units_Z   4
loop_
 _symmetry_equiv_pos_site_id
 _symmetry_equiv_pos_as_xyz
  1  'x, y, z'
loop_
 _atom_site_type_symbol
 _atom_site_label
 _atom_site_symmetry_multiplicity
 _atom_site_fract_x
 _atom_site_fract_y
 _atom_site_fract_z
 _atom_site_occupancy
  Si  Si0  1  0.513362  0.265056  0.117054  1
  Si  Si1  1  0.791460  0.757742  0.115153  1
  Si  Si2  1  0.150666  0.506948  0.825391  1
  Si  Si3  1  0.651832  0.507034  0.527423  1
  O  O4  1  0.228154  0.277617  0.989501  1
  O  O5  1  0.392586  0.593592  0.665961  1
  O  O6  1  0.074663  0.735918  0.985283  1
  O  O7  1  0.643239  0.516679  0.031247  1
  O  O8  1  0.537170  0.284935  0.378790  1
  O  O9  1  0.772480  0.729570  0.377277  1
  O  O10  1  0.658113  0.015043  0.045223  1
  O  O11  1  0.904955  0.419155  0.673117  1
