# generated using pymatgen
data_H10C3NClO4
_symmetry_space_group_name_H-M   'P 1'
_cell_length_a   8.93371800
_cell_length_b   5.75333900
_cell_length_c   7.67144212
_cell_angle_alpha   76.18703013
_cell_angle_beta   90.00000000
_cell_angle_gamma   90.00000000
_symmetry_Int_Tables_number   1
_chemical_formula_structural   H10C3NClO4
_chemical_formula_sum   'H20 C6 N2 Cl2 O8'
_cell_volume   382.89909691
_cell_formula_units_Z   2
loop_
 _symmetry_equiv_pos_site_id
 _symmetry_equiv_pos_as_xyz
  1  'x, y, z'
loop_
 _atom_site_type_symbol
 _atom_site_label
 _atom_site_symmetry_multiplicity
 _atom_site_fract_x
 _atom_site_fract_y
 _atom_site_fract_z
 _atom_site_occupancy
  H  H0  1  0.487071  0.045786  0.725967  1
  H  H1  1  0.393916  0.786286  0.857807  1
  H  H2  1  0.750739  0.936628  0.989104  1
  H  H3  1  0.250739  0.063372  0.010896  1
  H  H4  1  0.249680  0.201689  0.614023  1
  H  H5  1  0.345376  0.314453  0.870021  1
  H  H6  1  0.886630  0.151703  0.382856  1
  H  H7  1  0.749680  0.798311  0.385977  1
  H  H8  1  0.121322  0.827189  0.627921  1
  H  H9  1  0.014961  0.037685  0.718226  1
  H  H10  1  0.644004  0.698898  0.128479  1
  H  H11  1  0.144004  0.301102  0.871521  1
  H  H12  1  0.107471  0.791793  0.866622  1
  H  H13  1  0.607471  0.208207  0.133378  1
  H  H14  1  0.987071  0.954214  0.274033  1
  H  H15  1  0.893916  0.213714  0.142193  1
  H  H16  1  0.845376  0.685547  0.129979  1
  H  H17  1  0.514961  0.962315  0.281774  1
  H  H18  1  0.621322  0.172811  0.372079  1
  H  H19  1  0.386630  0.848297  0.617144  1
  C  C20  1  0.747630  0.802999  0.117324  1
  C  C21  1  0.613209  0.079214  0.263894  1
  C  C22  1  0.113209  0.920786  0.736106  1
  C  C23  1  0.247630  0.197001  0.882676  1
  C  C24  1  0.890189  0.072750  0.266477  1
  C  C25  1  0.390189  0.927250  0.733523  1
  N  N26  1  0.750460  0.929110  0.266730  1
  N  N27  1  0.250460  0.070890  0.733270  1
  Cl  Cl28  1  0.753019  0.498167  0.709031  1
  Cl  Cl29  1  0.253019  0.501833  0.290969  1
  O  O30  1  0.766270  0.759054  0.678475  1
  O  O31  1  0.114142  0.582784  0.195199  1
  O  O32  1  0.380243  0.618051  0.185652  1
  O  O33  1  0.266270  0.240946  0.321525  1
  O  O34  1  0.751667  0.438420  0.532725  1
  O  O35  1  0.880243  0.381949  0.814348  1
  O  O36  1  0.614142  0.417216  0.804801  1
  O  O37  1  0.251667  0.561580  0.467275  1
