# generated using pymatgen
data_SiO2
_symmetry_space_group_name_H-M   'P 1'
_cell_length_a   8.37426139
_cell_length_b   8.37426139
_cell_length_c   8.37426139
_cell_angle_alpha   150.60522522
_cell_angle_beta   147.65541911
_cell_angle_gamma   44.26621936
_symmetry_Int_Tables_number   1
_chemical_formula_structural   SiO2
_chemical_formula_sum   'Si4 O8'
_cell_volume   153.76847184
_cell_formula_units_Z   4
loop_
 _symmetry_equiv_pos_site_id
 _symmetry_equiv_pos_as_xyz
  1  'x, y, z'
loop_
 _atom_site_type_symbol
 _atom_site_label
 _atom_site_symmetry_multiplicity
 _atom_site_fract_x
 _atom_site_fract_y
 _atom_site_fract_z
 _atom_site_occupancy
  Si  Si0  1  0.187006  0.437006  0.750000  1
  Si  Si1  1  0.440067  0.690067  0.750000  1
  Si  Si2  1  0.059933  0.809933  0.250000  1
  Si  Si3  1  0.312994  0.062994  0.250000  1
  O  O4  1  0.287782  0.608271  0.155058  1
  O  O5  1  0.212218  0.367276  0.320490  1
  O  O6  1  0.546786  0.891729  0.179510  1
  O  O7  1  0.071472  0.750000  0.821472  1
  O  O8  1  0.750000  0.592787  0.842787  1
  O  O9  1  0.250000  0.907213  0.657213  1
  O  O10  1  0.428528  0.250000  0.678528  1
  O  O11  1  0.953214  0.132724  0.344942  1
