# generated using pymatgen
data_Ag2O3
_symmetry_space_group_name_H-M   'P 1'
_cell_length_a   8.47197688
_cell_length_b   6.83784460
_cell_length_c   5.67218360
_cell_angle_alpha   84.70733445
_cell_angle_beta   53.48220788
_cell_angle_gamma   41.81045767
_symmetry_Int_Tables_number   1
_chemical_formula_structural   Ag2O3
_chemical_formula_sum   'Ag4 O6'
_cell_volume   132.92833059
_cell_formula_units_Z   2
loop_
 _symmetry_equiv_pos_site_id
 _symmetry_equiv_pos_as_xyz
  1  'x, y, z'
loop_
 _atom_site_type_symbol
 _atom_site_label
 _atom_site_symmetry_multiplicity
 _atom_site_fract_x
 _atom_site_fract_y
 _atom_site_fract_z
 _atom_site_occupancy
  Ag  Ag0  1  0.414567  0.179560  0.819352  1
  Ag  Ag1  1  0.430648  0.663479  0.835433  1
  Ag  Ag2  1  0.070440  0.835433  0.663479  1
  Ag  Ag3  1  0.586521  0.819352  0.179560  1
  O  O4  1  0.216663  0.947954  0.316739  1
  O  O5  1  0.933261  0.731355  0.033337  1
  O  O6  1  0.302046  0.033337  0.731355  1
  O  O7  1  0.584627  0.415373  0.415373  1
  O  O8  1  0.518645  0.316739  0.947954  1
  O  O9  1  0.834627  0.665373  0.665373  1
