# generated using pymatgen
data_Ga2S3
_symmetry_space_group_name_H-M   'P 1'
_cell_length_a   6.58038061
_cell_length_b   6.58038061
_cell_length_c   7.12142118
_cell_angle_alpha   63.37942310
_cell_angle_beta   63.37942310
_cell_angle_gamma   59.57742874
_symmetry_Int_Tables_number   1
_chemical_formula_structural   Ga2S3
_chemical_formula_sum   'Ga4 S6'
_cell_volume   227.72675050
_cell_formula_units_Z   2
loop_
 _symmetry_equiv_pos_site_id
 _symmetry_equiv_pos_as_xyz
  1  'x, y, z'
loop_
 _atom_site_type_symbol
 _atom_site_label
 _atom_site_symmetry_multiplicity
 _atom_site_fract_x
 _atom_site_fract_y
 _atom_site_fract_z
 _atom_site_occupancy
  Ga  Ga0  1  0.137771  0.268204  0.380766  1
  Ga  Ga1  1  0.268204  0.137771  0.880766  1
  Ga  Ga2  1  0.445467  0.641501  0.370376  1
  Ga  Ga3  1  0.641501  0.445467  0.870376  1
  S  S4  1  0.426657  0.253760  0.497025  1
  S  S5  1  0.253760  0.426657  0.997025  1
  S  S6  1  0.760137  0.584147  0.486797  1
  S  S7  1  0.584147  0.760137  0.986797  1
  S  S8  1  0.911535  0.092820  0.016036  1
  S  S9  1  0.092820  0.911535  0.516036  1
