# generated using pymatgen
data_RbLiMoO4
_symmetry_space_group_name_H-M   'P 1'
_cell_length_a   5.75533744
_cell_length_b   5.75533744
_cell_length_c   10.23333638
_cell_angle_alpha   72.17069718
_cell_angle_beta   72.17069718
_cell_angle_gamma   60.51742040
_symmetry_Int_Tables_number   1
_chemical_formula_structural   RbLiMoO4
_chemical_formula_sum   'Rb2 Li2 Mo2 O8'
_cell_volume   275.91293491
_cell_formula_units_Z   2
loop_
 _symmetry_equiv_pos_site_id
 _symmetry_equiv_pos_as_xyz
  1  'x, y, z'
loop_
 _atom_site_type_symbol
 _atom_site_label
 _atom_site_symmetry_multiplicity
 _atom_site_fract_x
 _atom_site_fract_y
 _atom_site_fract_z
 _atom_site_occupancy
  Rb  Rb0  1  0.476277  0.028958  0.497711  1
  Rb  Rb1  1  0.028958  0.476277  0.997711  1
  Li  Li2  1  0.616753  0.132321  0.127597  1
  Li  Li3  1  0.132321  0.616753  0.627597  1
  Mo  Mo4  1  0.747685  0.251327  0.751888  1
  Mo  Mo5  1  0.251327  0.747685  0.251888  1
  O  O6  1  0.916151  0.997286  0.222933  1
  O  O7  1  0.702772  0.274846  0.929837  1
  O  O8  1  0.317619  0.429403  0.218457  1
  O  O9  1  0.429403  0.317619  0.718457  1
  O  O10  1  0.274846  0.702772  0.429837  1
  O  O11  1  0.862755  0.495646  0.636578  1
  O  O12  1  0.495646  0.862755  0.136578  1
  O  O13  1  0.997286  0.916151  0.722933  1
