# generated using pymatgen
data_SiO2
_symmetry_space_group_name_H-M   'P 1'
_cell_length_a   8.40425707
_cell_length_b   8.40425707
_cell_length_c   8.40425707
_cell_angle_alpha   105.24536821
_cell_angle_beta   105.24536821
_cell_angle_gamma   118.30034819
_symmetry_Int_Tables_number   1
_chemical_formula_structural   SiO2
_chemical_formula_sum   'Si8 O16'
_cell_volume   448.70641641
_cell_formula_units_Z   8
loop_
 _symmetry_equiv_pos_site_id
 _symmetry_equiv_pos_as_xyz
  1  'x, y, z'
loop_
 _atom_site_type_symbol
 _atom_site_label
 _atom_site_symmetry_multiplicity
 _atom_site_fract_x
 _atom_site_fract_y
 _atom_site_fract_z
 _atom_site_occupancy
  Si  Si0  1  0.042266  0.832231  0.500000  1
  Si  Si1  1  0.832231  0.332231  0.789965  1
  Si  Si2  1  0.667769  0.457734  0.500000  1
  Si  Si3  1  0.167769  0.667769  0.210035  1
  Si  Si4  1  0.957734  0.167769  0.500000  1
  Si  Si5  1  0.332231  0.542266  0.500000  1
  Si  Si6  1  0.542266  0.042266  0.210035  1
  Si  Si7  1  0.457734  0.957734  0.789965  1
  O  O8  1  0.750000  0.064364  0.314364  1
  O  O9  1  0.250000  0.564364  0.314364  1
  O  O10  1  0.355913  0.855913  0.211826  1
  O  O11  1  0.000000  0.000000  0.500000  1
  O  O12  1  0.750000  0.435636  0.685636  1
  O  O13  1  0.500000  0.000000  0.000000  1
  O  O14  1  0.644087  0.144087  0.788174  1
  O  O15  1  0.935636  0.250000  0.685636  1
  O  O16  1  0.000000  0.500000  0.000000  1
  O  O17  1  0.064364  0.750000  0.314364  1
  O  O18  1  0.435636  0.750000  0.685636  1
  O  O19  1  0.144087  0.355913  0.500000  1
  O  O20  1  0.250000  0.935636  0.685636  1
  O  O21  1  0.564364  0.250000  0.314364  1
  O  O22  1  0.855913  0.644087  0.500000  1
  O  O23  1  0.500000  0.500000  0.500000  1
