# generated using pymatgen
data_H3AuC2NCl
_symmetry_space_group_name_H-M   'P 1'
_cell_length_a   6.62326700
_cell_length_b   4.43352400
_cell_length_c   9.26180982
_cell_angle_alpha   88.80457084
_cell_angle_beta   90.00000000
_cell_angle_gamma   90.00000000
_symmetry_Int_Tables_number   1
_chemical_formula_structural   H3AuC2NCl
_chemical_formula_sum   'H6 Au2 C4 N2 Cl2'
_cell_volume   271.90841719
_cell_formula_units_Z   2
loop_
 _symmetry_equiv_pos_site_id
 _symmetry_equiv_pos_as_xyz
  1  'x, y, z'
loop_
 _atom_site_type_symbol
 _atom_site_label
 _atom_site_symmetry_multiplicity
 _atom_site_fract_x
 _atom_site_fract_y
 _atom_site_fract_z
 _atom_site_occupancy
  H  H0  1  0.393419  0.234301  0.157991  1
  H  H1  1  0.384818  0.603373  0.076308  1
  H  H2  1  0.655217  0.606408  0.897850  1
  H  H3  1  0.893419  0.765699  0.842009  1
  H  H4  1  0.884818  0.396627  0.923692  1
  H  H5  1  0.155217  0.393592  0.102150  1
  Au  Au6  1  0.272230  0.857073  0.586803  1
  Au  Au7  1  0.772230  0.142927  0.413197  1
  C  C8  1  0.773388  0.320680  0.601561  1
  C  C9  1  0.273388  0.679320  0.398439  1
  C  C10  1  0.804352  0.557280  0.852613  1
  C  C11  1  0.304352  0.442720  0.147387  1
  N  N12  1  0.282188  0.570905  0.284847  1
  N  N13  1  0.782188  0.429095  0.715153  1
  Cl  Cl14  1  0.780297  0.940730  0.188146  1
  Cl  Cl15  1  0.280297  0.059270  0.811854  1
