# generated using pymatgen
data_Ba2TiOF6
_symmetry_space_group_name_H-M   'P 1'
_cell_length_a   7.47990073
_cell_length_b   7.47990073
_cell_length_c   7.32897958
_cell_angle_alpha   62.51077590
_cell_angle_beta   62.51077590
_cell_angle_gamma   78.24439598
_symmetry_Int_Tables_number   1
_chemical_formula_structural   Ba2TiOF6
_chemical_formula_sum   'Ba4 Ti2 O2 F12'
_cell_volume   322.66182527
_cell_formula_units_Z   2
loop_
 _symmetry_equiv_pos_site_id
 _symmetry_equiv_pos_as_xyz
  1  'x, y, z'
loop_
 _atom_site_type_symbol
 _atom_site_label
 _atom_site_symmetry_multiplicity
 _atom_site_fract_x
 _atom_site_fract_y
 _atom_site_fract_z
 _atom_site_occupancy
  Ba  Ba0  1  0.177198  0.419248  0.156221  1
  Ba  Ba1  1  0.173282  0.827430  0.500681  1
  Ba  Ba2  1  0.827430  0.173282  0.000681  1
  Ba  Ba3  1  0.419248  0.177198  0.656221  1
  Ti  Ti4  1  0.680096  0.667236  0.086203  1
  Ti  Ti5  1  0.667236  0.680096  0.586203  1
  O  O6  1  0.606412  0.731211  0.364297  1
  O  O7  1  0.731211  0.606412  0.864297  1
  F  F8  1  0.155556  0.073029  0.108127  1
  F  F9  1  0.573389  0.399163  0.764009  1
  F  F10  1  0.605022  0.941604  0.949352  1
  F  F11  1  0.397421  0.761503  0.764506  1
  F  F12  1  0.947987  0.760991  0.979867  1
  F  F13  1  0.445653  0.154769  0.283637  1
  F  F14  1  0.154769  0.445653  0.783637  1
  F  F15  1  0.941604  0.605022  0.449352  1
  F  F16  1  0.761503  0.397421  0.264506  1
  F  F17  1  0.399163  0.573389  0.264009  1
  F  F18  1  0.073029  0.155556  0.608127  1
  F  F19  1  0.760991  0.947987  0.479867  1
