# generated using pymatgen
data_Na3MoN3
_symmetry_space_group_name_H-M   'P 1'
_cell_length_a   8.87876307
_cell_length_b   8.87876307
_cell_length_c   6.42521981
_cell_angle_alpha   69.00165240
_cell_angle_beta   69.00165240
_cell_angle_gamma   76.34624673
_symmetry_Int_Tables_number   1
_chemical_formula_structural   Na3MoN3
_chemical_formula_sum   'Na12 Mo4 N12'
_cell_volume   438.09496498
_cell_formula_units_Z   4
loop_
 _symmetry_equiv_pos_site_id
 _symmetry_equiv_pos_as_xyz
  1  'x, y, z'
loop_
 _atom_site_type_symbol
 _atom_site_label
 _atom_site_symmetry_multiplicity
 _atom_site_fract_x
 _atom_site_fract_y
 _atom_site_fract_z
 _atom_site_occupancy
  Na  Na0  1  0.726356  0.292067  0.021426  1
  Na  Na1  1  0.292067  0.726356  0.521426  1
  Na  Na2  1  0.637560  0.600677  0.575826  1
  Na  Na3  1  0.600677  0.637560  0.075826  1
  Na  Na4  1  0.395783  0.355970  0.808508  1
  Na  Na5  1  0.355970  0.395783  0.308508  1
  Na  Na6  1  0.007630  0.524793  0.039006  1
  Na  Na7  1  0.524793  0.007630  0.539006  1
  Na  Na8  1  0.909586  0.858569  0.623210  1
  Na  Na9  1  0.858569  0.909586  0.123210  1
  Na  Na10  1  0.124415  0.145578  0.117348  1
  Na  Na11  1  0.145578  0.124415  0.617348  1
  Mo  Mo12  1  0.240674  0.762202  0.003672  1
  Mo  Mo13  1  0.762202  0.240674  0.503672  1
  Mo  Mo14  1  0.005457  0.495291  0.578162  1
  Mo  Mo15  1  0.495291  0.005457  0.078162  1
  N  N16  1  0.386450  0.598961  0.908653  1
  N  N17  1  0.598961  0.386450  0.408653  1
  N  N18  1  0.103012  0.840191  0.823738  1
  N  N19  1  0.840191  0.103012  0.323738  1
  N  N20  1  0.146740  0.367804  0.738339  1
  N  N21  1  0.367804  0.146740  0.238339  1
  N  N22  1  0.833364  0.579962  0.780045  1
  N  N23  1  0.579962  0.833364  0.280045  1
  N  N24  1  0.675957  0.112491  0.826183  1
  N  N25  1  0.112491  0.675957  0.326183  1
  N  N26  1  0.938203  0.358375  0.459083  1
  N  N27  1  0.358375  0.938203  0.959083  1
