# generated using pymatgen
data_OsO4
_symmetry_space_group_name_H-M   'P 1'
_cell_length_a   5.24507824
_cell_length_b   5.24507824
_cell_length_c   4.92671378
_cell_angle_alpha   64.28770538
_cell_angle_beta   64.28770538
_cell_angle_gamma   54.37085961
_symmetry_Int_Tables_number   1
_chemical_formula_structural   OsO4
_chemical_formula_sum   'Os1 O4'
_cell_volume   96.17423151
_cell_formula_units_Z   1
loop_
 _symmetry_equiv_pos_site_id
 _symmetry_equiv_pos_as_xyz
  1  'x, y, z'
loop_
 _atom_site_type_symbol
 _atom_site_label
 _atom_site_symmetry_multiplicity
 _atom_site_fract_x
 _atom_site_fract_y
 _atom_site_fract_z
 _atom_site_occupancy
  Os  Os0  1  0.000400  0.999600  0.500000  1
  O  O1  1  0.662845  0.079772  0.429615  1
  O  O2  1  0.094410  0.678245  0.819782  1
  O  O3  1  0.920228  0.337155  0.570385  1
  O  O4  1  0.321755  0.905590  0.180218  1
