# generated using pymatgen
data_ZnCdC4(SeN)4
_symmetry_space_group_name_H-M   'P 1'
_cell_length_a   8.45354470
_cell_length_b   8.45354470
_cell_length_c   8.45354470
_cell_angle_alpha   94.99119324
_cell_angle_beta   94.99119324
_cell_angle_gamma   145.68947475
_symmetry_Int_Tables_number   1
_chemical_formula_structural   ZnCdC4(SeN)4
_chemical_formula_sum   'Zn1 Cd1 C4 Se4 N4'
_cell_volume   325.37355490
_cell_formula_units_Z   1
loop_
 _symmetry_equiv_pos_site_id
 _symmetry_equiv_pos_as_xyz
  1  'x, y, z'
loop_
 _atom_site_type_symbol
 _atom_site_label
 _atom_site_symmetry_multiplicity
 _atom_site_fract_x
 _atom_site_fract_y
 _atom_site_fract_z
 _atom_site_occupancy
  Zn  Zn0  1  0.250000  0.750000  0.500000  1
  Cd  Cd1  1  0.500000  0.500000  0.000000  1
  C  C2  1  0.112710  0.326179  0.646992  1
  C  C3  1  0.534282  0.887290  0.213469  1
  C  C4  1  0.673821  0.320814  0.786531  1
  C  C5  1  0.679186  0.465718  0.353008  1
  Se  Se6  1  0.031597  0.078495  0.727867  1
  Se  Se7  1  0.696270  0.968403  0.046898  1
  Se  Se8  1  0.921505  0.649372  0.953102  1
  Se  Se9  1  0.350628  0.303730  0.272133  1
  N  N10  1  0.159046  0.480165  0.590115  1
  N  N11  1  0.431069  0.840954  0.321119  1
  N  N12  1  0.519835  0.109950  0.678881  1
  N  N13  1  0.890050  0.568931  0.409885  1
