# generated using pymatgen
data_PNClF
_symmetry_space_group_name_H-M   'P 1'
_cell_length_a   8.15397046
_cell_length_b   8.15397046
_cell_length_c   7.96907300
_cell_angle_alpha   90.00000000
_cell_angle_beta   90.00000000
_cell_angle_gamma   104.72194465
_symmetry_Int_Tables_number   1
_chemical_formula_structural   PNClF
_chemical_formula_sum   'P6 N6 Cl6 F6'
_cell_volume   512.44718311
_cell_formula_units_Z   6
loop_
 _symmetry_equiv_pos_site_id
 _symmetry_equiv_pos_as_xyz
  1  'x, y, z'
loop_
 _atom_site_type_symbol
 _atom_site_label
 _atom_site_symmetry_multiplicity
 _atom_site_fract_x
 _atom_site_fract_y
 _atom_site_fract_z
 _atom_site_occupancy
  P  P0  1  0.671869  0.671869  0.759281  1
  P  P1  1  0.299899  0.085982  0.012000  1
  P  P2  1  0.700101  0.914018  0.512000  1
  P  P3  1  0.914018  0.700101  0.512000  1
  P  P4  1  0.085982  0.299899  0.012000  1
  P  P5  1  0.328131  0.328131  0.259281  1
  N  N6  1  0.602825  0.814541  0.669054  1
  N  N7  1  0.397175  0.185459  0.169054  1
  N  N8  1  0.855410  0.855410  0.433775  1
  N  N9  1  0.814541  0.602825  0.669054  1
  N  N10  1  0.185459  0.397175  0.169054  1
  N  N11  1  0.144590  0.144590  0.933775  1
  Cl  Cl12  1  0.736826  0.736826  0.996528  1
  Cl  Cl13  1  0.765497  0.162910  0.556324  1
  Cl  Cl14  1  0.837090  0.234503  0.056324  1
  Cl  Cl15  1  0.234503  0.837090  0.056324  1
  Cl  Cl16  1  0.263174  0.263174  0.496528  1
  Cl  Cl17  1  0.162910  0.765497  0.556324  1
  F  F18  1  0.093198  0.434174  0.869311  1
  F  F19  1  0.906802  0.565826  0.369311  1
  F  F20  1  0.565826  0.906802  0.369311  1
  F  F21  1  0.483663  0.483663  0.291235  1
  F  F22  1  0.516337  0.516337  0.791235  1
  F  F23  1  0.434174  0.093198  0.869311  1
