# generated using pymatgen
data_TeS4(NCl)4
_symmetry_space_group_name_H-M   'P 1'
_cell_length_a   9.23679831
_cell_length_b   9.23679831
_cell_length_c   7.59835594
_cell_angle_alpha   81.63160190
_cell_angle_beta   81.63160190
_cell_angle_gamma   84.24164912
_symmetry_Int_Tables_number   1
_chemical_formula_structural   TeS4(NCl)4
_chemical_formula_sum   'Te2 S8 N8 Cl8'
_cell_volume   632.47050663
_cell_formula_units_Z   2
loop_
 _symmetry_equiv_pos_site_id
 _symmetry_equiv_pos_as_xyz
  1  'x, y, z'
loop_
 _atom_site_type_symbol
 _atom_site_label
 _atom_site_symmetry_multiplicity
 _atom_site_fract_x
 _atom_site_fract_y
 _atom_site_fract_z
 _atom_site_occupancy
  Te  Te0  1  0.306345  0.050843  0.411469  1
  Te  Te1  1  0.050843  0.306345  0.911469  1
  S  S2  1  0.497676  0.030802  0.991781  1
  S  S3  1  0.744069  0.827838  0.117285  1
  S  S4  1  0.298352  0.819671  0.099055  1
  S  S5  1  0.819671  0.298352  0.599055  1
  S  S6  1  0.827838  0.744069  0.617285  1
  S  S7  1  0.599479  0.530103  0.730489  1
  S  S8  1  0.530103  0.599479  0.230489  1
  S  S9  1  0.030802  0.497676  0.491781  1
  N  N10  1  0.953962  0.658217  0.505171  1
  N  N11  1  0.375362  0.958540  0.156309  1
  N  N12  1  0.702526  0.655938  0.742366  1
  N  N13  1  0.655938  0.702526  0.242366  1
  N  N14  1  0.388079  0.666587  0.150162  1
  N  N15  1  0.666587  0.388079  0.650162  1
  N  N16  1  0.958540  0.375362  0.656309  1
  N  N17  1  0.658217  0.953962  0.005171  1
  Cl  Cl18  1  0.040584  0.054082  0.826469  1
  Cl  Cl19  1  0.791787  0.305204  0.054960  1
  Cl  Cl20  1  0.325644  0.288392  0.198265  1
  Cl  Cl21  1  0.047383  0.573319  0.939070  1
  Cl  Cl22  1  0.305204  0.791787  0.554960  1
  Cl  Cl23  1  0.573319  0.047383  0.439070  1
  Cl  Cl24  1  0.288392  0.325644  0.698265  1
  Cl  Cl25  1  0.054082  0.040584  0.326469  1
