# generated using pymatgen
data_NbI2O
_symmetry_space_group_name_H-M   'P 1'
_cell_length_a   8.28172329
_cell_length_b   8.28172329
_cell_length_c   7.60452416
_cell_angle_alpha   75.48473601
_cell_angle_beta   75.48473601
_cell_angle_gamma   27.75522760
_symmetry_Int_Tables_number   1
_chemical_formula_structural   NbI2O
_chemical_formula_sum   'Nb2 I4 O2'
_cell_volume   234.65871112
_cell_formula_units_Z   2
loop_
 _symmetry_equiv_pos_site_id
 _symmetry_equiv_pos_as_xyz
  1  'x, y, z'
loop_
 _atom_site_type_symbol
 _atom_site_label
 _atom_site_symmetry_multiplicity
 _atom_site_fract_x
 _atom_site_fract_y
 _atom_site_fract_z
 _atom_site_occupancy
  Nb  Nb0  1  0.963179  0.036228  0.791707  1
  Nb  Nb1  1  0.963772  0.036821  0.208293  1
  I  I2  1  0.150043  0.145986  0.918163  1
  I  I3  1  0.127724  0.115294  0.434263  1
  I  I4  1  0.884706  0.872276  0.565737  1
  I  I5  1  0.854014  0.849957  0.081837  1
  O  O6  1  0.497258  0.501833  0.787149  1
  O  O7  1  0.498167  0.502742  0.212851  1
