# generated using pymatgen
data_K5Nb(CN)8
_symmetry_space_group_name_H-M   'P 1'
_cell_length_a   8.04445556
_cell_length_b   8.04445556
_cell_length_c   8.04445556
_cell_angle_alpha   109.05042128
_cell_angle_beta   109.05042128
_cell_angle_gamma   110.31613759
_symmetry_Int_Tables_number   1
_chemical_formula_structural   K5Nb(CN)8
_chemical_formula_sum   'K5 Nb1 C8 N8'
_cell_volume   400.67949851
_cell_formula_units_Z   1
loop_
 _symmetry_equiv_pos_site_id
 _symmetry_equiv_pos_as_xyz
  1  'x, y, z'
loop_
 _atom_site_type_symbol
 _atom_site_label
 _atom_site_symmetry_multiplicity
 _atom_site_fract_x
 _atom_site_fract_y
 _atom_site_fract_z
 _atom_site_occupancy
  K  K0  1  0.873497  0.478307  0.144552  1
  K  K1  1  0.521693  0.666245  0.395190  1
  K  K2  1  0.333755  0.728944  0.855448  1
  K  K3  1  0.271056  0.126503  0.604810  1
  K  K4  1  0.750000  0.250000  0.500000  1
  Nb  Nb5  1  0.000000  0.000000  0.000000  1
  C  C6  1  0.831846  0.933664  0.167878  1
  C  C7  1  0.719166  0.006939  0.840885  1
  C  C8  1  0.765785  0.663967  0.832122  1
  C  C9  1  0.121719  0.280834  0.287773  1
  C  C10  1  0.066336  0.234215  0.898182  1
  C  C11  1  0.993061  0.833946  0.712227  1
  C  C12  1  0.336033  0.168154  0.101818  1
  C  C13  1  0.166054  0.878281  0.159115  1
  N  N14  1  0.180535  0.423994  0.442839  1
  N  N15  1  0.576006  0.018845  0.756541  1
  N  N16  1  0.736874  0.894331  0.248407  1
  N  N17  1  0.645923  0.488466  0.751593  1
  N  N18  1  0.262304  0.819465  0.243459  1
  N  N19  1  0.511534  0.263126  0.157457  1
  N  N20  1  0.981155  0.737696  0.557161  1
  N  N21  1  0.105669  0.354077  0.842543  1
