# generated using pymatgen
data_SiO2
_symmetry_space_group_name_H-M   'P 1'
_cell_length_a   5.43467016
_cell_length_b   5.43467016
_cell_length_c   6.82387031
_cell_angle_alpha   73.16645838
_cell_angle_beta   73.16645838
_cell_angle_gamma   99.16599207
_symmetry_Int_Tables_number   1
_chemical_formula_structural   SiO2
_chemical_formula_sum   'Si4 O8'
_cell_volume   178.02231624
_cell_formula_units_Z   4
loop_
 _symmetry_equiv_pos_site_id
 _symmetry_equiv_pos_as_xyz
  1  'x, y, z'
loop_
 _atom_site_type_symbol
 _atom_site_label
 _atom_site_symmetry_multiplicity
 _atom_site_fract_x
 _atom_site_fract_y
 _atom_site_fract_z
 _atom_site_occupancy
  Si  Si0  1  0.203300  0.206090  0.779561  1
  Si  Si1  1  0.790060  0.425286  0.629062  1
  Si  Si2  1  0.574714  0.209940  0.370938  1
  Si  Si3  1  0.793910  0.796700  0.220439  1
  O  O4  1  0.604867  0.002792  0.240921  1
  O  O5  1  0.879829  0.720372  0.437679  1
  O  O6  1  0.279628  0.120171  0.562321  1
  O  O7  1  0.056853  0.943147  0.000000  1
  O  O8  1  0.478701  0.367022  0.792201  1
  O  O9  1  0.632978  0.521299  0.207799  1
  O  O10  1  0.788203  0.211797  0.500000  1
  O  O11  1  0.997208  0.395133  0.759079  1
