# generated using pymatgen
data_Ga2H6(SeO4)3
_symmetry_space_group_name_H-M   'P 1'
_cell_length_a   8.62331737
_cell_length_b   8.62331737
_cell_length_c   8.62331739
_cell_angle_alpha   65.96884453
_cell_angle_beta   65.96884453
_cell_angle_gamma   65.96884785
_symmetry_Int_Tables_number   1
_chemical_formula_structural   Ga2H6(SeO4)3
_chemical_formula_sum   'Ga4 H12 Se6 O24'
_cell_volume   512.01347323
_cell_formula_units_Z   2
loop_
 _symmetry_equiv_pos_site_id
 _symmetry_equiv_pos_as_xyz
  1  'x, y, z'
loop_
 _atom_site_type_symbol
 _atom_site_label
 _atom_site_symmetry_multiplicity
 _atom_site_fract_x
 _atom_site_fract_y
 _atom_site_fract_z
 _atom_site_occupancy
  Ga  Ga0  1  0.123109  0.123109  0.123109  1
  Ga  Ga1  1  0.623109  0.623109  0.623109  1
  Ga  Ga2  1  0.358931  0.358931  0.358931  1
  Ga  Ga3  1  0.858931  0.858931  0.858931  1
  H  H4  1  0.332429  0.188768  0.710239  1
  H  H5  1  0.188768  0.710239  0.332429  1
  H  H6  1  0.710239  0.332429  0.188768  1
  H  H7  1  0.688768  0.832429  0.210239  1
  H  H8  1  0.832429  0.210239  0.688768  1
  H  H9  1  0.210239  0.688768  0.832429  1
  H  H10  1  0.361801  0.377241  0.659693  1
  H  H11  1  0.377241  0.659693  0.361801  1
  H  H12  1  0.659693  0.361801  0.377241  1
  H  H13  1  0.877241  0.861801  0.159693  1
  H  H14  1  0.861801  0.159693  0.877241  1
  H  H15  1  0.159693  0.877241  0.861801  1
  Se  Se16  1  0.918167  0.464798  0.847291  1
  Se  Se17  1  0.464798  0.847291  0.918167  1
  Se  Se18  1  0.847291  0.918167  0.464798  1
  Se  Se19  1  0.964798  0.418167  0.347291  1
  Se  Se20  1  0.418167  0.347291  0.964798  1
  Se  Se21  1  0.347291  0.964798  0.418167  1
  O  O22  1  0.916898  0.262960  0.018219  1
  O  O23  1  0.262960  0.018219  0.916898  1
  O  O24  1  0.018219  0.916898  0.262960  1
  O  O25  1  0.762960  0.416898  0.518219  1
  O  O26  1  0.416898  0.518219  0.762960  1
  O  O27  1  0.518219  0.762960  0.416898  1
  O  O28  1  0.217894  0.329572  0.984083  1
  O  O29  1  0.329572  0.984083  0.217894  1
  O  O30  1  0.984083  0.217894  0.329572  1
  O  O31  1  0.829572  0.717894  0.484083  1
  O  O32  1  0.717894  0.484083  0.829572  1
  O  O33  1  0.484083  0.829572  0.717894  1
  O  O34  1  0.847690  0.613223  0.967457  1
  O  O35  1  0.613223  0.967457  0.847690  1
  O  O36  1  0.967457  0.847690  0.613223  1
  O  O37  1  0.113223  0.347690  0.467457  1
  O  O38  1  0.347690  0.467457  0.113223  1
  O  O39  1  0.467457  0.113223  0.347690  1
  O  O40  1  0.378607  0.284692  0.610171  1
  O  O41  1  0.284692  0.610171  0.378607  1
  O  O42  1  0.610171  0.378607  0.284692  1
  O  O43  1  0.784692  0.878607  0.110171  1
  O  O44  1  0.878607  0.110171  0.784692  1
  O  O45  1  0.110171  0.784692  0.878607  1
