# generated using pymatgen
data_Cs2CoSiO4
_symmetry_space_group_name_H-M   'P 1'
_cell_length_a   7.06261948
_cell_length_b   10.91877394
_cell_length_c   8.23289100
_cell_angle_alpha   90.00013151
_cell_angle_beta   90.00016388
_cell_angle_gamma   78.62758452
_symmetry_Int_Tables_number   1
_chemical_formula_structural   Cs2CoSiO4
_chemical_formula_sum   'Cs8 Co4 Si4 O16'
_cell_volume   622.41548265
_cell_formula_units_Z   4
loop_
 _symmetry_equiv_pos_site_id
 _symmetry_equiv_pos_as_xyz
  1  'x, y, z'
loop_
 _atom_site_type_symbol
 _atom_site_label
 _atom_site_symmetry_multiplicity
 _atom_site_fract_x
 _atom_site_fract_y
 _atom_site_fract_z
 _atom_site_occupancy
  Cs  Cs0  1  0.885095  0.961701  0.273411  1
  Cs  Cs1  1  0.385101  0.461699  0.273407  1
  Cs  Cs2  1  0.114900  0.038302  0.773408  1
  Cs  Cs3  1  0.614903  0.538300  0.773408  1
  Cs  Cs4  1  0.608394  0.202776  0.917028  1
  Cs  Cs5  1  0.108389  0.702775  0.917025  1
  Cs  Cs6  1  0.391604  0.797227  0.417026  1
  Cs  Cs7  1  0.891610  0.297224  0.417029  1
  Co  Co8  1  0.810434  0.603487  0.194049  1
  Co  Co9  1  0.689570  0.896510  0.694052  1
  Co  Co10  1  0.310430  0.103480  0.194055  1
  Co  Co11  1  0.189570  0.396522  0.694058  1
  Si  Si12  1  0.452072  0.150688  0.478879  1
  Si  Si13  1  0.952072  0.650685  0.478880  1
  Si  Si14  1  0.547928  0.849315  0.978882  1
  Si  Si15  1  0.047930  0.349311  0.978882  1
  O  O16  1  0.530168  0.176702  0.292777  1
  O  O17  1  0.030169  0.676696  0.292775  1
  O  O18  1  0.469832  0.823301  0.792776  1
  O  O19  1  0.969833  0.323298  0.792778  1
  O  O20  1  0.260860  0.086964  0.437577  1
  O  O21  1  0.760860  0.586966  0.437582  1
  O  O22  1  0.739138  0.913036  0.937583  1
  O  O23  1  0.239143  0.413033  0.937580  1
  O  O24  1  0.622719  0.055516  0.579896  1
  O  O25  1  0.122709  0.555512  0.579898  1
  O  O26  1  0.377294  0.944489  0.079897  1
  O  O27  1  0.877281  0.444485  0.079895  1
  O  O28  1  0.394662  0.283609  0.579873  1
  O  O29  1  0.894662  0.783607  0.579875  1
  O  O30  1  0.605340  0.716396  0.079877  1
  O  O31  1  0.105334  0.216391  0.079876  1
