# generated using pymatgen
data_Pr2SbO5F
_symmetry_space_group_name_H-M   'P 1'
_cell_length_a   6.69231400
_cell_length_b   7.10535000
_cell_length_c   10.23653795
_cell_angle_alpha   86.38892104
_cell_angle_beta   90.00000000
_cell_angle_gamma   90.00000000
_symmetry_Int_Tables_number   1
_chemical_formula_structural   Pr2SbO5F
_chemical_formula_sum   'Pr8 Sb4 O20 F4'
_cell_volume   485.79357515
_cell_formula_units_Z   4
loop_
 _symmetry_equiv_pos_site_id
 _symmetry_equiv_pos_as_xyz
  1  'x, y, z'
loop_
 _atom_site_type_symbol
 _atom_site_label
 _atom_site_symmetry_multiplicity
 _atom_site_fract_x
 _atom_site_fract_y
 _atom_site_fract_z
 _atom_site_occupancy
  Pr  Pr0  1  0.749490  0.372301  0.535007  1
  Pr  Pr1  1  0.568975  0.122807  0.965444  1
  Pr  Pr2  1  0.068975  0.877193  0.034556  1
  Pr  Pr3  1  0.378595  0.130512  0.338627  1
  Pr  Pr4  1  0.439030  0.627328  0.839166  1
  Pr  Pr5  1  0.939030  0.372672  0.160834  1
  Pr  Pr6  1  0.878595  0.869488  0.661373  1
  Pr  Pr7  1  0.249490  0.627699  0.464993  1
  Sb  Sb8  1  0.809575  0.887204  0.322571  1
  Sb  Sb9  1  0.309575  0.112796  0.677429  1
  Sb  Sb10  1  0.012842  0.390397  0.821578  1
  Sb  Sb11  1  0.512842  0.609603  0.178422  1
  O  O12  1  0.311603  0.300245  0.825021  1
  O  O13  1  0.729299  0.048242  0.464392  1
  O  O14  1  0.587133  0.055800  0.727581  1
  O  O15  1  0.010254  0.199456  0.676394  1
  O  O16  1  0.091147  0.552298  0.963891  1
  O  O17  1  0.893705  0.690472  0.461447  1
  O  O18  1  0.087133  0.944200  0.272419  1
  O  O19  1  0.229299  0.951758  0.535608  1
  O  O20  1  0.115841  0.584625  0.687991  1
  O  O21  1  0.717062  0.082789  0.186407  1
  O  O22  1  0.742180  0.465081  0.767017  1
  O  O23  1  0.423923  0.806000  0.041610  1
  O  O24  1  0.591147  0.447702  0.036109  1
  O  O25  1  0.811603  0.699755  0.174979  1
  O  O26  1  0.615841  0.415375  0.312009  1
  O  O27  1  0.217062  0.917211  0.813593  1
  O  O28  1  0.510254  0.800544  0.323606  1
  O  O29  1  0.393705  0.309528  0.538553  1
  O  O30  1  0.923923  0.194000  0.958390  1
  O  O31  1  0.242180  0.534919  0.232983  1
  F  F32  1  0.037927  0.324268  0.392170  1
  F  F33  1  0.537927  0.675732  0.607830  1
  F  F34  1  0.776921  0.831388  0.893079  1
  F  F35  1  0.276921  0.168612  0.106921  1
