# generated using pymatgen
data_SiO2
_symmetry_space_group_name_H-M   'P 1'
_cell_length_a   6.86624337
_cell_length_b   6.86624337
_cell_length_c   13.58805900
_cell_angle_alpha   90.00000000
_cell_angle_beta   90.00000000
_cell_angle_gamma   119.99999389
_symmetry_Int_Tables_number   1
_chemical_formula_structural   SiO2
_chemical_formula_sum   'Si12 O24'
_cell_volume   554.78724427
_cell_formula_units_Z   12
loop_
 _symmetry_equiv_pos_site_id
 _symmetry_equiv_pos_as_xyz
  1  'x, y, z'
loop_
 _atom_site_type_symbol
 _atom_site_label
 _atom_site_symmetry_multiplicity
 _atom_site_fract_x
 _atom_site_fract_y
 _atom_site_fract_z
 _atom_site_occupancy
  Si  Si0  1  0.177273  0.772250  0.048893  1
  Si  Si1  1  0.772250  0.594977  0.382226  1
  Si  Si2  1  0.594977  0.822727  0.715560  1
  Si  Si3  1  0.227750  0.405023  0.382226  1
  Si  Si4  1  0.772250  0.177273  0.284440  1
  Si  Si5  1  0.405023  0.177273  0.715560  1
  Si  Si6  1  0.177273  0.405023  0.617774  1
  Si  Si7  1  0.822727  0.594977  0.617774  1
  Si  Si8  1  0.594977  0.772250  0.951107  1
  Si  Si9  1  0.405023  0.227750  0.951107  1
  Si  Si10  1  0.227750  0.822727  0.284440  1
  Si  Si11  1  0.822727  0.227750  0.048893  1
  O  O12  1  0.812332  0.624665  0.500000  1
  O  O13  1  0.000000  0.183483  0.333333  1
  O  O14  1  0.000000  0.500000  0.637025  1
  O  O15  1  0.000000  0.816517  0.333333  1
  O  O16  1  0.787430  0.393715  0.333333  1
  O  O17  1  0.393715  0.787430  0.000000  1
  O  O18  1  0.500000  0.500000  0.970358  1
  O  O19  1  0.500000  0.000000  0.696308  1
  O  O20  1  0.183483  0.183483  0.666667  1
  O  O21  1  0.187668  0.375335  0.500000  1
  O  O22  1  0.816517  0.000000  0.000000  1
  O  O23  1  0.393715  0.606285  0.666667  1
  O  O24  1  0.816517  0.816517  0.666667  1
  O  O25  1  0.000000  0.500000  0.029642  1
  O  O26  1  0.500000  0.000000  0.303692  1
  O  O27  1  0.500000  0.500000  0.362975  1
  O  O28  1  0.606285  0.212570  0.000000  1
  O  O29  1  0.187668  0.812332  0.166667  1
  O  O30  1  0.812332  0.187668  0.166667  1
  O  O31  1  0.212570  0.606285  0.333333  1
  O  O32  1  0.183483  0.000000  0.000000  1
  O  O33  1  0.606285  0.393715  0.666667  1
  O  O34  1  0.624665  0.812332  0.833333  1
  O  O35  1  0.375335  0.187668  0.833333  1
