# generated using pymatgen
data_CaAlH5
_symmetry_space_group_name_H-M   'P 1'
_cell_length_a   4.41746300
_cell_length_b   4.94108500
_cell_length_c   12.16854100
_cell_angle_alpha   90.00000000
_cell_angle_beta   90.00000000
_cell_angle_gamma   90.00000000
_symmetry_Int_Tables_number   1
_chemical_formula_structural   CaAlH5
_chemical_formula_sum   'Ca4 Al4 H20'
_cell_volume   265.60347656
_cell_formula_units_Z   4
loop_
 _symmetry_equiv_pos_site_id
 _symmetry_equiv_pos_as_xyz
  1  'x, y, z'
loop_
 _atom_site_type_symbol
 _atom_site_label
 _atom_site_symmetry_multiplicity
 _atom_site_fract_x
 _atom_site_fract_y
 _atom_site_fract_z
 _atom_site_occupancy
  Ca  Ca0  1  0.718253  0.352450  0.159214  1
  Ca  Ca1  1  0.218253  0.147550  0.840786  1
  Ca  Ca2  1  0.281747  0.852450  0.340786  1
  Ca  Ca3  1  0.781747  0.647550  0.659214  1
  Al  Al4  1  0.190852  0.130175  0.587343  1
  Al  Al5  1  0.309148  0.869825  0.087343  1
  Al  Al6  1  0.809148  0.630175  0.912657  1
  Al  Al7  1  0.690852  0.369825  0.412657  1
  H  H8  1  0.964932  0.373650  0.985748  1
  H  H9  1  0.357227  0.911872  0.678279  1
  H  H10  1  0.011449  0.872989  0.992828  1
  H  H11  1  0.683896  0.904139  0.839742  1
  H  H12  1  0.385920  0.370105  0.321771  1
  H  H13  1  0.816104  0.095861  0.339742  1
  H  H14  1  0.511449  0.627011  0.007172  1
  H  H15  1  0.316104  0.404139  0.660258  1
  H  H16  1  0.857227  0.588128  0.321721  1
  H  H17  1  0.535068  0.626350  0.485748  1
  H  H18  1  0.988551  0.372989  0.507172  1
  H  H19  1  0.035068  0.873650  0.514252  1
  H  H20  1  0.614080  0.870105  0.178229  1
  H  H21  1  0.885920  0.129895  0.678229  1
  H  H22  1  0.114080  0.629895  0.821771  1
  H  H23  1  0.142773  0.088128  0.178279  1
  H  H24  1  0.464932  0.126350  0.014252  1
  H  H25  1  0.642773  0.411872  0.821721  1
  H  H26  1  0.488551  0.127011  0.492828  1
  H  H27  1  0.183896  0.595861  0.160258  1
