# generated using pymatgen
data_H6CNF
_symmetry_space_group_name_H-M   'P 1'
_cell_length_a   5.23632239
_cell_length_b   5.23632239
_cell_length_c   5.23632165
_cell_angle_alpha   50.73296133
_cell_angle_beta   50.73296133
_cell_angle_gamma   50.73296109
_symmetry_Int_Tables_number   1
_chemical_formula_structural   H6CNF
_chemical_formula_sum   'H6 C1 N1 F1'
_cell_volume   79.33027409
_cell_formula_units_Z   1
loop_
 _symmetry_equiv_pos_site_id
 _symmetry_equiv_pos_as_xyz
  1  'x, y, z'
loop_
 _atom_site_type_symbol
 _atom_site_label
 _atom_site_symmetry_multiplicity
 _atom_site_fract_x
 _atom_site_fract_y
 _atom_site_fract_z
 _atom_site_occupancy
  H  H0  1  0.771471  0.385769  0.771471  1
  H  H1  1  0.385769  0.771471  0.771471  1
  H  H2  1  0.348471  0.348471  0.745603  1
  H  H3  1  0.771471  0.771471  0.385769  1
  H  H4  1  0.745603  0.348471  0.348471  1
  H  H5  1  0.348471  0.745603  0.348471  1
  C  C6  1  0.508479  0.508479  0.508479  1
  N  N7  1  0.617171  0.617171  0.617171  1
  F  F8  1  0.001629  0.001629  0.001629  1
