# generated using pymatgen
data_BiB2O4F
_symmetry_space_group_name_H-M   'P 1'
_cell_length_a   6.79458953
_cell_length_b   6.79458953
_cell_length_c   6.52522000
_cell_angle_alpha   90.00000000
_cell_angle_beta   90.00000000
_cell_angle_gamma   119.99999538
_symmetry_Int_Tables_number   1
_chemical_formula_structural   BiB2O4F
_chemical_formula_sum   'Bi3 B6 O12 F3'
_cell_volume   260.88689328
_cell_formula_units_Z   3
loop_
 _symmetry_equiv_pos_site_id
 _symmetry_equiv_pos_as_xyz
  1  'x, y, z'
loop_
 _atom_site_type_symbol
 _atom_site_label
 _atom_site_symmetry_multiplicity
 _atom_site_fract_x
 _atom_site_fract_y
 _atom_site_fract_z
 _atom_site_occupancy
  Bi  Bi0  1  0.234485  0.293455  0.784887  1
  Bi  Bi1  1  0.058970  0.765515  0.118221  1
  Bi  Bi2  1  0.706545  0.941030  0.451554  1
  B  B3  1  0.763885  0.310953  0.783918  1
  B  B4  1  0.684716  0.955764  0.999820  1
  B  B5  1  0.547068  0.236115  0.117251  1
  B  B6  1  0.271048  0.315284  0.333154  1
  B  B7  1  0.689047  0.452932  0.450585  1
  B  B8  1  0.044236  0.728952  0.666487  1
  O  O9  1  0.314774  0.178022  0.185182  1
  O  O10  1  0.978964  0.535680  0.809798  1
  O  O11  1  0.702205  0.276339  0.567506  1
  O  O12  1  0.723661  0.425866  0.234173  1
  O  O13  1  0.464320  0.443284  0.476465  1
  O  O14  1  0.821978  0.136752  0.851849  1
  O  O15  1  0.108854  0.922783  0.802322  1
  O  O16  1  0.556716  0.021036  0.143132  1
  O  O17  1  0.813928  0.891146  0.135655  1
  O  O18  1  0.863248  0.685226  0.518515  1
  O  O19  1  0.574134  0.297795  0.900839  1
  O  O20  1  0.077217  0.186072  0.468989  1
  F  F21  1  0.235768  0.474824  0.209300  1
  F  F22  1  0.525176  0.760945  0.875967  1
  F  F23  1  0.239055  0.764232  0.542633  1
