# generated using pymatgen
data_FePO4
_symmetry_space_group_name_H-M   'P 1'
_cell_length_a   5.35055200
_cell_length_b   8.73512500
_cell_length_c   8.80320400
_cell_angle_alpha   72.24379898
_cell_angle_beta   90.00000000
_cell_angle_gamma   90.00000000
_symmetry_Int_Tables_number   1
_chemical_formula_structural   FePO4
_chemical_formula_sum   'Fe4 P4 O16'
_cell_volume   391.84192559
_cell_formula_units_Z   4
loop_
 _symmetry_equiv_pos_site_id
 _symmetry_equiv_pos_as_xyz
  1  'x, y, z'
loop_
 _atom_site_type_symbol
 _atom_site_label
 _atom_site_symmetry_multiplicity
 _atom_site_fract_x
 _atom_site_fract_y
 _atom_site_fract_z
 _atom_site_occupancy
  Fe  Fe0  1  0.306909  0.224043  0.129849  1
  Fe  Fe1  1  0.805107  0.367927  0.629699  1
  Fe  Fe2  1  0.693091  0.724043  0.129849  1
  Fe  Fe3  1  0.194893  0.867927  0.629699  1
  P  P4  1  0.692279  0.992500  0.758154  1
  P  P5  1  0.803735  0.347976  0.257372  1
  P  P6  1  0.307721  0.492500  0.758154  1
  P  P7  1  0.196265  0.847976  0.257372  1
  O  O8  1  0.229321  0.013539  0.128919  1
  O  O9  1  0.422251  0.001829  0.693503  1
  O  O10  1  0.628760  0.224667  0.217368  1
  O  O11  1  0.076221  0.288924  0.260448  1
  O  O12  1  0.763719  0.158875  0.773429  1
  O  O13  1  0.737289  0.363939  0.422357  1
  O  O14  1  0.770679  0.513539  0.128919  1
  O  O15  1  0.287204  0.366353  0.923129  1
  O  O16  1  0.129643  0.446896  0.640284  1
  O  O17  1  0.577749  0.501829  0.693503  1
  O  O18  1  0.371240  0.724667  0.217368  1
  O  O19  1  0.923779  0.788924  0.260448  1
  O  O20  1  0.236281  0.658875  0.773429  1
  O  O21  1  0.262711  0.863939  0.422357  1
  O  O22  1  0.712796  0.866353  0.923129  1
  O  O23  1  0.870357  0.946896  0.640284  1
