# generated using pymatgen
data_VZn2P2O9
_symmetry_space_group_name_H-M   'P 1'
_cell_length_a   7.88343736
_cell_length_b   7.88343736
_cell_length_c   7.88343736
_cell_angle_alpha   109.98699084
_cell_angle_beta   109.98699084
_cell_angle_gamma   108.44453284
_symmetry_Int_Tables_number   1
_chemical_formula_structural   VZn2P2O9
_chemical_formula_sum   'V2 Zn4 P4 O18'
_cell_volume   377.06880094
_cell_formula_units_Z   2
loop_
 _symmetry_equiv_pos_site_id
 _symmetry_equiv_pos_as_xyz
  1  'x, y, z'
loop_
 _atom_site_type_symbol
 _atom_site_label
 _atom_site_symmetry_multiplicity
 _atom_site_fract_x
 _atom_site_fract_y
 _atom_site_fract_z
 _atom_site_occupancy
  V  V0  1  0.396058  0.396058  0.000000  1
  V  V1  1  0.896058  0.896058  0.000000  1
  Zn  Zn2  1  0.853314  0.115275  0.500000  1
  Zn  Zn3  1  0.115275  0.615275  0.261960  1
  Zn  Zn4  1  0.353314  0.853314  0.738040  1
  Zn  Zn5  1  0.615275  0.353314  0.500000  1
  P  P6  1  0.072821  0.572821  0.885724  1
  P  P7  1  0.572821  0.687097  0.500000  1
  P  P8  1  0.187097  0.072821  0.500000  1
  P  P9  1  0.687097  0.187097  0.114276  1
  O  O10  1  0.072121  0.072121  0.000000  1
  O  O11  1  0.660342  0.160341  0.291950  1
  O  O12  1  0.708554  0.674086  0.690497  1
  O  O13  1  0.518057  0.483588  0.309503  1
  O  O14  1  0.483588  0.174086  0.965531  1
  O  O15  1  0.572121  0.572121  0.000000  1
  O  O16  1  0.174086  0.208554  0.690497  1
  O  O17  1  0.681584  0.881352  0.500000  1
  O  O18  1  0.160341  0.868392  0.500000  1
  O  O19  1  0.983588  0.018057  0.309503  1
  O  O20  1  0.881352  0.381352  0.199767  1
  O  O21  1  0.018057  0.708554  0.034469  1
  O  O22  1  0.208554  0.518057  0.034469  1
  O  O23  1  0.868392  0.368392  0.708050  1
  O  O24  1  0.674086  0.983588  0.965531  1
  O  O25  1  0.368392  0.660342  0.500000  1
  O  O26  1  0.381352  0.181584  0.500000  1
  O  O27  1  0.181584  0.681584  0.800233  1
