# generated using pymatgen
data_CoHgC4(SN)4
_symmetry_space_group_name_H-M   'P 1'
_cell_length_a   8.26672914
_cell_length_b   8.26672914
_cell_length_c   8.26672914
_cell_angle_alpha   94.72574997
_cell_angle_beta   94.72574997
_cell_angle_gamma   146.63950096
_symmetry_Int_Tables_number   1
_chemical_formula_structural   CoHgC4(SN)4
_chemical_formula_sum   'Co1 Hg1 C4 S4 N4'
_cell_volume   297.59028415
_cell_formula_units_Z   1
loop_
 _symmetry_equiv_pos_site_id
 _symmetry_equiv_pos_as_xyz
  1  'x, y, z'
loop_
 _atom_site_type_symbol
 _atom_site_label
 _atom_site_symmetry_multiplicity
 _atom_site_fract_x
 _atom_site_fract_y
 _atom_site_fract_z
 _atom_site_occupancy
  Co  Co0  1  0.750000  0.250000  0.500000  1
  Hg  Hg1  1  0.000000  0.000000  0.000000  1
  C  C2  1  0.176725  0.381155  0.355093  1
  C  C3  1  0.026062  0.821632  0.644907  1
  C  C4  1  0.618845  0.973938  0.795569  1
  C  C5  1  0.178368  0.823275  0.204431  1
  S  S6  1  0.553276  0.834476  0.954514  1
  S  S7  1  0.165524  0.120038  0.718800  1
  S  S8  1  0.879962  0.598762  0.045486  1
  S  S9  1  0.401238  0.446724  0.281200  1
  N  N10  1  0.660312  0.072860  0.681110  1
  N  N11  1  0.927140  0.608249  0.587451  1
  N  N12  1  0.391751  0.979202  0.318890  1
  N  N13  1  0.020798  0.339688  0.412549  1
