# generated using pymatgen
data_HgBr2
_symmetry_space_group_name_H-M   'P 1'
_cell_length_a   7.18384229
_cell_length_b   7.18384229
_cell_length_c   6.82696900
_cell_angle_alpha   90.00000000
_cell_angle_beta   90.00000000
_cell_angle_gamma   120.00000264
_symmetry_Int_Tables_number   1
_chemical_formula_structural   HgBr2
_chemical_formula_sum   'Hg3 Br6'
_cell_volume   305.12102144
_cell_formula_units_Z   3
loop_
 _symmetry_equiv_pos_site_id
 _symmetry_equiv_pos_as_xyz
  1  'x, y, z'
loop_
 _atom_site_type_symbol
 _atom_site_label
 _atom_site_symmetry_multiplicity
 _atom_site_fract_x
 _atom_site_fract_y
 _atom_site_fract_z
 _atom_site_occupancy
  Hg  Hg0  1  0.333333  0.666667  0.509248  1
  Hg  Hg1  1  0.000000  0.000000  0.472207  1
  Hg  Hg2  1  0.666667  0.333333  0.451394  1
  Br  Br3  1  0.011499  0.341082  0.245640  1
  Br  Br4  1  0.989492  0.661403  0.709777  1
  Br  Br5  1  0.338597  0.328089  0.709777  1
  Br  Br6  1  0.329583  0.988501  0.245640  1
  Br  Br7  1  0.671911  0.010508  0.709777  1
  Br  Br8  1  0.658918  0.670417  0.245640  1
