# generated using pymatgen
data_Ba3Si6N4O9
_symmetry_space_group_name_H-M   'P 1'
_cell_length_a   7.32366977
_cell_length_b   7.32366977
_cell_length_c   6.88519900
_cell_angle_alpha   90.00000000
_cell_angle_beta   90.00000000
_cell_angle_gamma   119.99999790
_symmetry_Int_Tables_number   1
_chemical_formula_structural   Ba3Si6N4O9
_chemical_formula_sum   'Ba3 Si6 N4 O9'
_cell_volume   319.81928230
_cell_formula_units_Z   1
loop_
 _symmetry_equiv_pos_site_id
 _symmetry_equiv_pos_as_xyz
  1  'x, y, z'
loop_
 _atom_site_type_symbol
 _atom_site_label
 _atom_site_symmetry_multiplicity
 _atom_site_fract_x
 _atom_site_fract_y
 _atom_site_fract_z
 _atom_site_occupancy
  Ba  Ba0  1  0.333333  0.666667  0.686389  1
  Ba  Ba1  1  0.000000  0.000000  0.560231  1
  Ba  Ba2  1  0.666667  0.333333  0.747775  1
  Si  Si3  1  0.450924  0.074489  0.255719  1
  Si  Si4  1  0.039703  0.786720  0.044699  1
  Si  Si5  1  0.213280  0.252984  0.044699  1
  Si  Si6  1  0.747016  0.960297  0.044699  1
  Si  Si7  1  0.623564  0.549076  0.255719  1
  Si  Si8  1  0.925511  0.376436  0.255719  1
  N  N9  1  0.000000  0.000000  0.093977  1
  N  N10  1  0.869266  0.574557  0.191652  1
  N  N11  1  0.425443  0.294710  0.191652  1
  N  N12  1  0.705290  0.130734  0.191652  1
  O  O13  1  0.291634  0.881993  0.104878  1
  O  O14  1  0.590358  0.708366  0.104878  1
  O  O15  1  0.009687  0.720320  0.818041  1
  O  O16  1  0.279680  0.289368  0.818041  1
  O  O17  1  0.623850  0.607595  0.481510  1
  O  O18  1  0.710632  0.990313  0.818041  1
  O  O19  1  0.392405  0.016256  0.481510  1
  O  O20  1  0.983744  0.376150  0.481510  1
  O  O21  1  0.118007  0.409642  0.104878  1
