# generated using pymatgen
data_KBi(PS3)2
_symmetry_space_group_name_H-M   'P 1'
_cell_length_a   7.57116300
_cell_length_b   6.75892600
_cell_length_c   10.05756110
_cell_angle_alpha   87.78096277
_cell_angle_beta   90.00000000
_cell_angle_gamma   90.00000000
_symmetry_Int_Tables_number   1
_chemical_formula_structural   KBi(PS3)2
_chemical_formula_sum   'K2 Bi2 P4 S12'
_cell_volume   514.28892332
_cell_formula_units_Z   2
loop_
 _symmetry_equiv_pos_site_id
 _symmetry_equiv_pos_as_xyz
  1  'x, y, z'
loop_
 _atom_site_type_symbol
 _atom_site_label
 _atom_site_symmetry_multiplicity
 _atom_site_fract_x
 _atom_site_fract_y
 _atom_site_fract_z
 _atom_site_occupancy
  K  K0  1  0.475195  0.701646  0.498056  1
  K  K1  1  0.975195  0.298354  0.501944  1
  Bi  Bi2  1  0.227995  0.210589  0.982419  1
  Bi  Bi3  1  0.727995  0.789411  0.017581  1
  P  P4  1  0.684471  0.312333  0.828367  1
  P  P5  1  0.959220  0.796080  0.297710  1
  P  P6  1  0.184471  0.687667  0.171633  1
  P  P7  1  0.459220  0.203920  0.702290  1
  S  S8  1  0.771907  0.572238  0.750011  1
  S  S9  1  0.539790  0.177281  0.516854  1
  S  S10  1  0.768529  0.588566  0.269104  1
  S  S11  1  0.570137  0.344690  0.013961  1
  S  S12  1  0.379799  0.952444  0.809562  1
  S  S13  1  0.268529  0.411434  0.730896  1
  S  S14  1  0.070137  0.655310  0.986039  1
  S  S15  1  0.879799  0.047556  0.190438  1
  S  S16  1  0.039790  0.822719  0.483146  1
  S  S17  1  0.371848  0.908757  0.169945  1
  S  S18  1  0.871848  0.091243  0.830055  1
  S  S19  1  0.271907  0.427762  0.249989  1
