# generated using pymatgen
data_Mn(PO3)3
_symmetry_space_group_name_H-M   'P 1'
_cell_length_a   6.63544385
_cell_length_b   9.78611156
_cell_length_c   6.67922556
_cell_angle_alpha   87.49292891
_cell_angle_beta   60.22243540
_cell_angle_gamma   90.00754123
_symmetry_Int_Tables_number   1
_chemical_formula_structural   Mn(PO3)3
_chemical_formula_sum   'Mn2 P6 O18'
_cell_volume   375.96902941
_cell_formula_units_Z   2
loop_
 _symmetry_equiv_pos_site_id
 _symmetry_equiv_pos_as_xyz
  1  'x, y, z'
loop_
 _atom_site_type_symbol
 _atom_site_label
 _atom_site_symmetry_multiplicity
 _atom_site_fract_x
 _atom_site_fract_y
 _atom_site_fract_z
 _atom_site_occupancy
  Mn  Mn0  1  0.319237  0.000069  0.333433  1
  Mn  Mn1  1  0.347299  0.500062  0.333533  1
  P  P2  1  0.721526  0.745657  0.064895  1
  P  P3  1  0.213567  0.245815  0.064921  1
  P  P4  1  0.708525  0.249323  0.217173  1
  P  P5  1  0.074336  0.749175  0.217154  1
  P  P6  1  0.226582  0.755097  0.715190  1
  P  P7  1  0.058179  0.255219  0.715204  1
  O  O8  1  0.935909  0.240452  0.240658  1
  O  O9  1  0.823458  0.740287  0.240637  1
  O  O10  1  0.591901  0.873120  0.088679  1
  O  O11  1  0.319490  0.373284  0.088655  1
  O  O12  1  0.598716  0.609818  0.089578  1
  O  O13  1  0.311604  0.109966  0.089660  1
  O  O14  1  0.574464  0.116606  0.315582  1
  O  O15  1  0.109867  0.616476  0.315653  1
  O  O16  1  0.587524  0.378073  0.328459  1
  O  O17  1  0.084240  0.877958  0.328322  1
  O  O18  1  0.949807  0.745662  0.816022  1
  O  O19  1  0.234113  0.245860  0.816061  1
  O  O20  1  0.807608  0.263857  0.943319  1
  O  O21  1  0.249057  0.763674  0.943300  1
  O  O22  1  0.337861  0.629412  0.593438  1
  O  O23  1  0.068757  0.129529  0.593401  1
  O  O24  1  0.316990  0.892704  0.586754  1
  O  O25  1  0.096148  0.392822  0.586790  1
