# generated using pymatgen
data_CaCO3
_symmetry_space_group_name_H-M   'P 1'
_cell_length_a   5.04083719
_cell_length_b   5.04083719
_cell_length_c   8.74457788
_cell_angle_alpha   89.35453170
_cell_angle_beta   89.35453170
_cell_angle_gamma   59.59667762
_symmetry_Int_Tables_number   1
_chemical_formula_structural   CaCO3
_chemical_formula_sum   'Ca3 C3 O9'
_cell_volume   191.62792800
_cell_formula_units_Z   3
loop_
 _symmetry_equiv_pos_site_id
 _symmetry_equiv_pos_as_xyz
  1  'x, y, z'
loop_
 _atom_site_type_symbol
 _atom_site_label
 _atom_site_symmetry_multiplicity
 _atom_site_fract_x
 _atom_site_fract_y
 _atom_site_fract_z
 _atom_site_occupancy
  Ca  Ca0  1  0.346799  0.323097  0.334487  1
  Ca  Ca1  1  0.016797  0.983203  0.000000  1
  Ca  Ca2  1  0.676903  0.653201  0.665513  1
  C  C3  1  0.689362  0.650621  0.169164  1
  C  C4  1  0.349379  0.310638  0.830836  1
  C  C5  1  0.008698  0.991302  0.500000  1
  O  O6  1  0.609142  0.051318  0.834051  1
  O  O7  1  0.092197  0.309849  0.826331  1
  O  O8  1  0.347706  0.569202  0.832542  1
  O  O9  1  0.430798  0.652294  0.167458  1
  O  O10  1  0.009424  0.733259  0.499902  1
  O  O11  1  0.266741  0.990576  0.500098  1
  O  O12  1  0.690151  0.907803  0.173669  1
  O  O13  1  0.948682  0.390858  0.165949  1
  O  O14  1  0.749220  0.250780  0.500000  1
