# generated using pymatgen
data_Cs2MnV2(ClO3)2
_symmetry_space_group_name_H-M   'P 1'
_cell_length_a   5.67211426
_cell_length_b   9.43422931
_cell_length_c   11.63278100
_cell_angle_alpha   90.00000000
_cell_angle_beta   90.00000000
_cell_angle_gamma   107.49445372
_symmetry_Int_Tables_number   1
_chemical_formula_structural   Cs2MnV2(ClO3)2
_chemical_formula_sum   'Cs4 Mn2 V4 Cl4 O12'
_cell_volume   593.70089761
_cell_formula_units_Z   2
loop_
 _symmetry_equiv_pos_site_id
 _symmetry_equiv_pos_as_xyz
  1  'x, y, z'
loop_
 _atom_site_type_symbol
 _atom_site_label
 _atom_site_symmetry_multiplicity
 _atom_site_fract_x
 _atom_site_fract_y
 _atom_site_fract_z
 _atom_site_occupancy
  Cs  Cs0  1  0.627484  0.254968  0.073747  1
  Cs  Cs1  1  0.627484  0.254968  0.573747  1
  Cs  Cs2  1  0.372516  0.745032  0.073747  1
  Cs  Cs3  1  0.372516  0.745032  0.573747  1
  Mn  Mn4  1  0.000000  0.000000  0.820285  1
  Mn  Mn5  1  0.000000  0.000000  0.320285  1
  V  V6  1  0.801511  0.603022  0.319394  1
  V  V7  1  0.198489  0.396978  0.319394  1
  V  V8  1  0.801511  0.603022  0.819394  1
  V  V9  1  0.198489  0.396978  0.819394  1
  Cl  Cl10  1  0.000000  0.000000  0.028780  1
  Cl  Cl11  1  0.000000  0.000000  0.528780  1
  Cl  Cl12  1  0.500000  0.000000  0.310667  1
  Cl  Cl13  1  0.500000  0.000000  0.810667  1
  O  O14  1  0.799489  0.598978  0.461317  1
  O  O15  1  0.799489  0.598978  0.961317  1
  O  O16  1  0.200511  0.401022  0.461317  1
  O  O17  1  0.200511  0.401022  0.961317  1
  O  O18  1  0.000000  0.500000  0.262859  1
  O  O19  1  0.000000  0.500000  0.762859  1
  O  O20  1  0.500000  0.500000  0.262859  1
  O  O21  1  0.500000  0.500000  0.762859  1
  O  O22  1  0.109242  0.218484  0.269592  1
  O  O23  1  0.109242  0.218484  0.769592  1
  O  O24  1  0.890758  0.781516  0.269592  1
  O  O25  1  0.890758  0.781516  0.769592  1
