# generated using pymatgen
data_H2CO2
_symmetry_space_group_name_H-M   'P 1'
_cell_length_a   3.74693500
_cell_length_b   5.45115100
_cell_length_c   10.52962800
_cell_angle_alpha   90.00000000
_cell_angle_beta   90.00000000
_cell_angle_gamma   90.00000000
_symmetry_Int_Tables_number   1
_chemical_formula_structural   H2CO2
_chemical_formula_sum   'H8 C4 O8'
_cell_volume   215.06879407
_cell_formula_units_Z   4
loop_
 _symmetry_equiv_pos_site_id
 _symmetry_equiv_pos_as_xyz
  1  'x, y, z'
loop_
 _atom_site_type_symbol
 _atom_site_label
 _atom_site_symmetry_multiplicity
 _atom_site_fract_x
 _atom_site_fract_y
 _atom_site_fract_z
 _atom_site_occupancy
  H  H0  1  0.072234  0.314525  0.604751  1
  H  H1  1  0.538241  0.361618  0.350086  1
  H  H2  1  0.961759  0.361618  0.850086  1
  H  H3  1  0.038241  0.861618  0.149914  1
  H  H4  1  0.572234  0.814525  0.895249  1
  H  H5  1  0.927766  0.814525  0.395249  1
  H  H6  1  0.427766  0.314525  0.104751  1
  H  H7  1  0.461759  0.861618  0.649914  1
  C  C8  1  0.314154  0.163846  0.161645  1
  C  C9  1  0.185846  0.163846  0.661645  1
  C  C10  1  0.814154  0.663846  0.338355  1
  C  C11  1  0.685846  0.663846  0.838355  1
  O  O12  1  0.652771  0.652959  0.721101  1
  O  O13  1  0.645382  0.499702  0.406632  1
  O  O14  1  0.347229  0.152959  0.278899  1
  O  O15  1  0.145382  0.999702  0.093368  1
  O  O16  1  0.152771  0.152959  0.778899  1
  O  O17  1  0.354618  0.999702  0.593368  1
  O  O18  1  0.854618  0.499702  0.906632  1
  O  O19  1  0.847229  0.652959  0.221101  1
