# generated using pymatgen
data_Na3VSO3
_symmetry_space_group_name_H-M   'P 1'
_cell_length_a   6.48428442
_cell_length_b   6.48428442
_cell_length_c   6.48428519
_cell_angle_alpha   83.84708749
_cell_angle_beta   83.84708749
_cell_angle_gamma   83.84708543
_symmetry_Int_Tables_number   1
_chemical_formula_structural   Na3VSO3
_chemical_formula_sum   'Na6 V2 S2 O6'
_cell_volume   268.24001249
_cell_formula_units_Z   2
loop_
 _symmetry_equiv_pos_site_id
 _symmetry_equiv_pos_as_xyz
  1  'x, y, z'
loop_
 _atom_site_type_symbol
 _atom_site_label
 _atom_site_symmetry_multiplicity
 _atom_site_fract_x
 _atom_site_fract_y
 _atom_site_fract_z
 _atom_site_occupancy
  Na  Na0  1  0.093784  0.706525  0.397360  1
  Na  Na1  1  0.206525  0.593784  0.897360  1
  Na  Na2  1  0.897360  0.206525  0.593784  1
  Na  Na3  1  0.706525  0.397360  0.093784  1
  Na  Na4  1  0.397360  0.093784  0.706525  1
  Na  Na5  1  0.593784  0.897360  0.206525  1
  V  V6  1  0.681629  0.681629  0.681629  1
  V  V7  1  0.181629  0.181629  0.181629  1
  S  S8  1  0.499859  0.499859  0.499859  1
  S  S9  1  0.999859  0.999859  0.999859  1
  O  O10  1  0.916155  0.537304  0.721574  1
  O  O11  1  0.537304  0.721574  0.916155  1
  O  O12  1  0.721574  0.916155  0.537304  1
  O  O13  1  0.416155  0.221574  0.037304  1
  O  O14  1  0.037304  0.416155  0.221574  1
  O  O15  1  0.221574  0.037304  0.416155  1
