# generated using pymatgen
data_LiSb(PO3)4
_symmetry_space_group_name_H-M   'P 1'
_cell_length_a   14.20799900
_cell_length_b   5.57017700
_cell_length_c   7.50387477
_cell_angle_alpha   83.97712424
_cell_angle_beta   90.00000000
_cell_angle_gamma   90.00000000
_symmetry_Int_Tables_number   1
_chemical_formula_structural   LiSb(PO3)4
_chemical_formula_sum   'Li2 Sb2 P8 O24'
_cell_volume   590.58658876
_cell_formula_units_Z   2
loop_
 _symmetry_equiv_pos_site_id
 _symmetry_equiv_pos_as_xyz
  1  'x, y, z'
loop_
 _atom_site_type_symbol
 _atom_site_label
 _atom_site_symmetry_multiplicity
 _atom_site_fract_x
 _atom_site_fract_y
 _atom_site_fract_z
 _atom_site_occupancy
  Li  Li0  1  0.502818  0.681306  0.891572  1
  Li  Li1  1  0.002818  0.318694  0.108428  1
  Sb  Sb2  1  0.739228  0.514216  0.483806  1
  Sb  Sb3  1  0.239228  0.485784  0.516194  1
  P  P4  1  0.883628  0.994518  0.563737  1
  P  P5  1  0.097852  0.968875  0.566168  1
  P  P6  1  0.670145  0.884775  0.084988  1
  P  P7  1  0.315989  0.778555  0.112691  1
  P  P8  1  0.815989  0.221445  0.887309  1
  P  P9  1  0.170145  0.115225  0.915012  1
  P  P10  1  0.597852  0.031125  0.433832  1
  P  P11  1  0.383628  0.005482  0.436263  1
  O  O12  1  0.260608  0.947136  0.962723  1
  O  O13  1  0.117165  0.950967  0.776882  1
  O  O14  1  0.606548  0.870351  0.929122  1
  O  O15  1  0.359258  0.983455  0.230337  1
  O  O16  1  0.492720  0.927341  0.453013  1
  O  O17  1  0.657685  0.839173  0.537370  1
  O  O18  1  0.332702  0.817981  0.559977  1
  O  O19  1  0.873588  0.733265  0.531437  1
  O  O20  1  0.102810  0.717197  0.510300  1
  O  O21  1  0.705640  0.654942  0.187001  1
  O  O22  1  0.393990  0.660357  0.023339  1
  O  O23  1  0.246778  0.622091  0.227071  1
  O  O24  1  0.746778  0.377909  0.772929  1
  O  O25  1  0.893990  0.339643  0.976661  1
  O  O26  1  0.205640  0.345058  0.812999  1
  O  O27  1  0.602810  0.282803  0.489700  1
  O  O28  1  0.373588  0.266735  0.468563  1
  O  O29  1  0.832702  0.182019  0.440023  1
  O  O30  1  0.157685  0.160827  0.462630  1
  O  O31  1  0.992720  0.072659  0.546987  1
  O  O32  1  0.859258  0.016545  0.769663  1
  O  O33  1  0.106548  0.129649  0.070878  1
  O  O34  1  0.617165  0.049033  0.223118  1
  O  O35  1  0.760608  0.052864  0.037277  1
