# generated using pymatgen
data_Li2ZnSnS4
_symmetry_space_group_name_H-M   'P 1'
_cell_length_a   6.79705000
_cell_length_b   6.45917600
_cell_length_c   10.31087305
_cell_angle_alpha   51.10778504
_cell_angle_beta   90.00000000
_cell_angle_gamma   90.00000000
_symmetry_Int_Tables_number   1
_chemical_formula_structural   Li2ZnSnS4
_chemical_formula_sum   'Li4 Zn2 Sn2 S8'
_cell_volume   352.33512162
_cell_formula_units_Z   2
loop_
 _symmetry_equiv_pos_site_id
 _symmetry_equiv_pos_as_xyz
  1  'x, y, z'
loop_
 _atom_site_type_symbol
 _atom_site_label
 _atom_site_symmetry_multiplicity
 _atom_site_fract_x
 _atom_site_fract_y
 _atom_site_fract_z
 _atom_site_occupancy
  Li  Li0  1  0.663411  0.701396  0.682148  1
  Li  Li1  1  0.162215  0.965579  0.425996  1
  Li  Li2  1  0.336589  0.701396  0.182148  1
  Li  Li3  1  0.837785  0.965579  0.925996  1
  Zn  Zn4  1  0.675088  0.207816  0.179849  1
  Zn  Zn5  1  0.324912  0.207816  0.679849  1
  Sn  Sn6  1  0.828472  0.457304  0.429553  1
  Sn  Sn7  1  0.171528  0.457304  0.929553  1
  S  S8  1  0.344671  0.329024  0.176511  1
  S  S9  1  0.180352  0.083671  0.926612  1
  S  S10  1  0.327596  0.840235  0.680510  1
  S  S11  1  0.833821  0.572075  0.936021  1
  S  S12  1  0.166179  0.572075  0.436021  1
  S  S13  1  0.819648  0.083671  0.426612  1
  S  S14  1  0.672404  0.840235  0.180510  1
  S  S15  1  0.655329  0.329024  0.676511  1
