# generated using pymatgen
data_SiO2
_symmetry_space_group_name_H-M   'P 1'
_cell_length_a   5.44861364
_cell_length_b   5.44861364
_cell_length_c   5.49341972
_cell_angle_alpha   83.77537194
_cell_angle_beta   83.77537194
_cell_angle_gamma   99.96659315
_symmetry_Int_Tables_number   1
_chemical_formula_structural   SiO2
_chemical_formula_sum   'Si4 O8'
_cell_volume   158.32410090
_cell_formula_units_Z   4
loop_
 _symmetry_equiv_pos_site_id
 _symmetry_equiv_pos_as_xyz
  1  'x, y, z'
loop_
 _atom_site_type_symbol
 _atom_site_label
 _atom_site_symmetry_multiplicity
 _atom_site_fract_x
 _atom_site_fract_y
 _atom_site_fract_z
 _atom_site_occupancy
  Si  Si0  1  0.943051  0.044382  0.506133  1
  Si  Si1  1  0.477638  0.629257  0.079543  1
  Si  Si2  1  0.629257  0.477638  0.579543  1
  Si  Si3  1  0.044382  0.943051  0.006133  1
  O  O4  1  0.508138  0.439574  0.870238  1
  O  O5  1  0.092662  0.119984  0.225437  1
  O  O6  1  0.223307  0.735202  0.033358  1
  O  O7  1  0.740186  0.836897  0.035761  1
  O  O8  1  0.119984  0.092662  0.725437  1
  O  O9  1  0.735202  0.223307  0.533358  1
  O  O10  1  0.439574  0.508138  0.370238  1
  O  O11  1  0.836897  0.740186  0.535761  1
