# generated using pymatgen
data_Li4CO4
_symmetry_space_group_name_H-M   'P 1'
_cell_length_a   4.88438900
_cell_length_b   5.07559000
_cell_length_c   5.89025700
_cell_angle_alpha   90.00000000
_cell_angle_beta   90.00000000
_cell_angle_gamma   90.00000000
_symmetry_Int_Tables_number   1
_chemical_formula_structural   Li4CO4
_chemical_formula_sum   'Li8 C2 O8'
_cell_volume   146.02627996
_cell_formula_units_Z   2
loop_
 _symmetry_equiv_pos_site_id
 _symmetry_equiv_pos_as_xyz
  1  'x, y, z'
loop_
 _atom_site_type_symbol
 _atom_site_label
 _atom_site_symmetry_multiplicity
 _atom_site_fract_x
 _atom_site_fract_y
 _atom_site_fract_z
 _atom_site_occupancy
  Li  Li0  1  0.590180  0.431276  0.299632  1
  Li  Li1  1  0.090180  0.568724  0.799632  1
  Li  Li2  1  0.590180  0.431276  0.700368  1
  Li  Li3  1  0.974668  0.082715  0.000000  1
  Li  Li4  1  0.966108  0.905397  0.500000  1
  Li  Li5  1  0.466108  0.094603  0.000000  1
  Li  Li6  1  0.474668  0.917285  0.500000  1
  Li  Li7  1  0.090180  0.568724  0.200368  1
  C  C8  1  0.658380  0.689516  0.000000  1
  C  C9  1  0.158380  0.310484  0.500000  1
  O  O10  1  0.762143  0.818385  0.802742  1
  O  O11  1  0.375954  0.690752  0.000000  1
  O  O12  1  0.262143  0.181615  0.302742  1
  O  O13  1  0.262967  0.579332  0.500000  1
  O  O14  1  0.762143  0.818385  0.197258  1
  O  O15  1  0.762967  0.420668  0.000000  1
  O  O16  1  0.262143  0.181615  0.697258  1
  O  O17  1  0.875954  0.309248  0.500000  1
