# generated using pymatgen
data_Li6Cu(B2O5)2
_symmetry_space_group_name_H-M   'P 1'
_cell_length_a   4.79762600
_cell_length_b   6.46157590
_cell_length_c   7.28121580
_cell_angle_alpha   80.53211678
_cell_angle_beta   71.25506167
_cell_angle_gamma   75.12348899
_symmetry_Int_Tables_number   1
_chemical_formula_structural   Li6Cu(B2O5)2
_chemical_formula_sum   'Li6 Cu1 B4 O10'
_cell_volume   205.75169271
_cell_formula_units_Z   1
loop_
 _symmetry_equiv_pos_site_id
 _symmetry_equiv_pos_as_xyz
  1  'x, y, z'
loop_
 _atom_site_type_symbol
 _atom_site_label
 _atom_site_symmetry_multiplicity
 _atom_site_fract_x
 _atom_site_fract_y
 _atom_site_fract_z
 _atom_site_occupancy
  Li  Li0  1  0.458926  0.639564  0.278532  1
  Li  Li1  1  0.742728  0.841992  0.995995  1
  Li  Li2  1  0.897721  0.971069  0.627021  1
  Li  Li3  1  0.866701  0.367941  0.437704  1
  Li  Li4  1  0.943777  0.833258  0.342309  1
  Li  Li5  1  0.519314  0.150719  0.220546  1
  Cu  Cu6  1  0.750368  0.324106  0.841792  1
  B  B7  1  0.384415  0.111517  0.618962  1
  B  B8  1  0.137227  0.541805  0.057625  1
  B  B9  1  0.281721  0.607372  0.679733  1
  B  B10  1  0.217541  0.018460  0.990836  1
  O  O11  1  0.633595  0.087538  0.460687  1
  O  O12  1  0.571170  0.495533  0.652387  1
  O  O13  1  0.096924  0.202498  0.611432  1
  O  O14  1  0.413361  0.429219  0.074929  1
  O  O15  1  0.439202  0.027507  0.803966  1
  O  O16  1  0.080676  0.620641  0.875180  1
  O  O17  1  0.914107  0.087124  0.011486  1
  O  O18  1  0.894565  0.598246  0.216146  1
  O  O19  1  0.170741  0.713005  0.533098  1
  O  O20  1  0.325422  0.929485  0.144135  1
