# generated using pymatgen
data_MnHgC4(SN)4
_symmetry_space_group_name_H-M   'P 1'
_cell_length_a   8.39835049
_cell_length_b   8.39835049
_cell_length_c   8.39835049
_cell_angle_alpha   94.30557397
_cell_angle_beta   94.30557397
_cell_angle_gamma   148.19519812
_symmetry_Int_Tables_number   1
_chemical_formula_structural   MnHgC4(SN)4
_chemical_formula_sum   'Mn1 Hg1 C4 S4 N4'
_cell_volume   300.23958774
_cell_formula_units_Z   1
loop_
 _symmetry_equiv_pos_site_id
 _symmetry_equiv_pos_as_xyz
  1  'x, y, z'
loop_
 _atom_site_type_symbol
 _atom_site_label
 _atom_site_symmetry_multiplicity
 _atom_site_fract_x
 _atom_site_fract_y
 _atom_site_fract_z
 _atom_site_occupancy
  Mn  Mn0  1  0.250000  0.750000  0.500000  1
  Hg  Hg1  1  0.000000  0.000000  0.000000  1
  C  C2  1  0.810464  0.162398  0.193817  1
  C  C3  1  0.837602  0.031419  0.648066  1
  C  C4  1  0.383354  0.189536  0.351934  1
  C  C5  1  0.968581  0.616646  0.806182  1
  S  S6  1  0.590154  0.868755  0.034486  1
  S  S7  1  0.131245  0.165730  0.721398  1
  S  S8  1  0.444332  0.409846  0.278602  1
  S  S9  1  0.834270  0.555668  0.965514  1
  N  N10  1  0.963037  0.371961  0.308668  1
  N  N11  1  0.628039  0.936706  0.591076  1
  N  N12  1  0.345630  0.036963  0.408924  1
  N  N13  1  0.063294  0.654370  0.691332  1
