# generated using pymatgen
data_Na2Mn2O3
_symmetry_space_group_name_H-M   'P 1'
_cell_length_a   6.48723823
_cell_length_b   6.48760924
_cell_length_c   9.46647901
_cell_angle_alpha   90.00390072
_cell_angle_beta   89.99967103
_cell_angle_gamma   90.03071709
_symmetry_Int_Tables_number   1
_chemical_formula_structural   Na2Mn2O3
_chemical_formula_sum   'Na8 Mn8 O12'
_cell_volume   398.41248838
_cell_formula_units_Z   4
loop_
 _symmetry_equiv_pos_site_id
 _symmetry_equiv_pos_as_xyz
  1  'x, y, z'
loop_
 _atom_site_type_symbol
 _atom_site_label
 _atom_site_symmetry_multiplicity
 _atom_site_fract_x
 _atom_site_fract_y
 _atom_site_fract_z
 _atom_site_occupancy
  Na  Na0  1  0.520542  0.741690  0.362699  1
  Na  Na1  1  0.479399  0.258405  0.862636  1
  Na  Na2  1  0.241606  0.979290  0.612600  1
  Na  Na3  1  0.758359  0.020724  0.112631  1
  Na  Na4  1  0.020559  0.758461  0.887350  1
  Na  Na5  1  0.979395  0.241583  0.387368  1
  Na  Na6  1  0.258339  0.479339  0.137391  1
  Na  Na7  1  0.741528  0.520602  0.637412  1
  Mn  Mn8  1  0.746875  0.041113  0.635587  1
  Mn  Mn9  1  0.753182  0.541057  0.114427  1
  Mn  Mn10  1  0.253412  0.958772  0.135493  1
  Mn  Mn11  1  0.246799  0.458665  0.614344  1
  Mn  Mn12  1  0.458714  0.247008  0.385556  1
  Mn  Mn13  1  0.958888  0.253415  0.864482  1
  Mn  Mn14  1  0.541096  0.753348  0.885655  1
  Mn  Mn15  1  0.041095  0.746703  0.364292  1
  O  O16  1  0.189973  0.189872  0.000052  1
  O  O17  1  0.689963  0.310165  0.250023  1
  O  O18  1  0.810124  0.810034  0.499973  1
  O  O19  1  0.310114  0.689714  0.750028  1
  O  O20  1  0.744627  0.999874  0.855355  1
  O  O21  1  0.255420  0.000245  0.355268  1
  O  O22  1  0.244550  0.500241  0.394666  1
  O  O23  1  0.000176  0.255348  0.644753  1
  O  O24  1  0.499818  0.755355  0.105368  1
  O  O25  1  0.500250  0.244498  0.605277  1
  O  O26  1  0.755372  0.499852  0.894712  1
  O  O27  1  0.999824  0.744628  0.144602  1
