# generated using pymatgen
data_KNi(PO3)3
_symmetry_space_group_name_H-M   'P 1'
_cell_length_a   6.35827633
_cell_length_b   7.06776709
_cell_length_c   20.45913379
_cell_angle_alpha   90.00168531
_cell_angle_beta   90.00624914
_cell_angle_gamma   68.26132545
_symmetry_Int_Tables_number   1
_chemical_formula_structural   KNi(PO3)3
_chemical_formula_sum   'K4 Ni4 P12 O36'
_cell_volume   854.02341954
_cell_formula_units_Z   4
loop_
 _symmetry_equiv_pos_site_id
 _symmetry_equiv_pos_as_xyz
  1  'x, y, z'
loop_
 _atom_site_type_symbol
 _atom_site_label
 _atom_site_symmetry_multiplicity
 _atom_site_fract_x
 _atom_site_fract_y
 _atom_site_fract_z
 _atom_site_occupancy
  K  K0  1  0.000135  0.493185  0.499906  1
  K  K1  1  0.000162  0.493091  0.000111  1
  K  K2  1  0.500165  0.993243  0.750058  1
  K  K3  1  0.500157  0.993173  0.249969  1
  Ni  Ni4  1  0.000280  0.000962  0.500088  1
  Ni  Ni5  1  0.499879  0.501481  0.749886  1
  Ni  Ni6  1  0.000329  0.000803  0.999823  1
  Ni  Ni7  1  0.500029  0.500932  0.250053  1
  P  P8  1  0.343698  0.688404  0.395443  1
  P  P9  1  0.343899  0.688243  0.895427  1
  P  P10  1  0.843744  0.188389  0.645473  1
  P  P11  1  0.843759  0.188334  0.145379  1
  P  P12  1  0.641837  0.255719  0.388267  1
  P  P13  1  0.641715  0.255777  0.888227  1
  P  P14  1  0.141692  0.755760  0.638278  1
  P  P15  1  0.141796  0.755784  0.138219  1
  P  P16  1  0.014404  0.464868  0.716355  1
  P  P17  1  0.014438  0.464838  0.216300  1
  P  P18  1  0.514460  0.964856  0.966335  1
  P  P19  1  0.514467  0.964826  0.466303  1
  O  O20  1  0.282087  0.082579  0.492292  1
  O  O21  1  0.282012  0.082599  0.992291  1
  O  O22  1  0.782014  0.582668  0.742314  1
  O  O23  1  0.782069  0.582601  0.242299  1
  O  O24  1  0.835957  0.231194  0.433405  1
  O  O25  1  0.835905  0.231366  0.933335  1
  O  O26  1  0.335856  0.731453  0.683381  1
  O  O27  1  0.335899  0.731306  0.183369  1
  O  O28  1  0.882006  0.215959  0.574386  1
  O  O29  1  0.882062  0.215702  0.074273  1
  O  O30  1  0.382020  0.715926  0.824344  1
  O  O31  1  0.381885  0.716019  0.324346  1
  O  O32  1  0.529771  0.747045  0.437554  1
  O  O33  1  0.529757  0.747090  0.937607  1
  O  O34  1  0.029779  0.247074  0.687604  1
  O  O35  1  0.029708  0.247051  0.187547  1
  O  O36  1  0.422352  0.449517  0.413661  1
  O  O37  1  0.422393  0.449453  0.913713  1
  O  O38  1  0.922311  0.949545  0.663713  1
  O  O39  1  0.922350  0.949535  0.163652  1
  O  O40  1  0.047689  0.574411  0.648781  1
  O  O41  1  0.047741  0.574446  0.148735  1
  O  O42  1  0.547729  0.074391  0.898772  1
  O  O43  1  0.547695  0.074455  0.398732  1
  O  O44  1  0.112699  0.789694  0.424582  1
  O  O45  1  0.112681  0.789426  0.924464  1
  O  O46  1  0.612656  0.289656  0.674574  1
  O  O47  1  0.612768  0.289623  0.174546  1
  O  O48  1  0.170018  0.770526  0.565969  1
  O  O49  1  0.169973  0.770622  0.065892  1
  O  O50  1  0.669807  0.270812  0.815921  1
  O  O51  1  0.670059  0.270563  0.315940  1
  O  O52  1  0.717292  0.921543  0.509521  1
  O  O53  1  0.717388  0.921512  0.009521  1
  O  O54  1  0.217286  0.421609  0.759544  1
  O  O55  1  0.217277  0.421560  0.259530  1
