# generated using pymatgen
data_In2Cu2SiS6
_symmetry_space_group_name_H-M   'P 1'
_cell_length_a   6.90803744
_cell_length_b   6.90803744
_cell_length_c   12.10526146
_cell_angle_alpha   72.49308886
_cell_angle_beta   72.49308886
_cell_angle_gamma   59.55636821
_symmetry_Int_Tables_number   1
_chemical_formula_structural   In2Cu2SiS6
_chemical_formula_sum   'In4 Cu4 Si2 S12'
_cell_volume   467.16102707
_cell_formula_units_Z   2
loop_
 _symmetry_equiv_pos_site_id
 _symmetry_equiv_pos_as_xyz
  1  'x, y, z'
loop_
 _atom_site_type_symbol
 _atom_site_label
 _atom_site_symmetry_multiplicity
 _atom_site_fract_x
 _atom_site_fract_y
 _atom_site_fract_z
 _atom_site_occupancy
  In  In0  1  0.534492  0.300747  0.441250  1
  In  In1  1  0.171775  0.311384  0.746661  1
  In  In2  1  0.311384  0.171775  0.246661  1
  In  In3  1  0.300747  0.534492  0.941250  1
  Cu  Cu4  1  0.389477  0.813255  0.596938  1
  Cu  Cu5  1  0.787836  0.013921  0.746412  1
  Cu  Cu6  1  0.813255  0.389477  0.096938  1
  Cu  Cu7  1  0.013921  0.787836  0.246412  1
  Si  Si8  1  0.407608  0.929953  0.004453  1
  Si  Si9  1  0.929953  0.407608  0.504453  1
  S  S10  1  0.692355  0.149794  0.248903  1
  S  S11  1  0.830107  0.351495  0.690836  1
  S  S12  1  0.535731  0.031617  0.637384  1
  S  S13  1  0.082645  0.112088  0.954825  1
  S  S14  1  0.112088  0.082645  0.454825  1
  S  S15  1  0.149794  0.692355  0.748903  1
  S  S16  1  0.031617  0.535731  0.137384  1
  S  S17  1  0.601343  0.111614  0.939439  1
  S  S18  1  0.351495  0.830107  0.190836  1
  S  S19  1  0.111614  0.601343  0.439439  1
  S  S20  1  0.617108  0.616649  0.440347  1
  S  S21  1  0.616649  0.617108  0.940347  1
