# generated using pymatgen
data_K2Sr(PO3)4
_symmetry_space_group_name_H-M   'P 1'
_cell_length_a   7.42547063
_cell_length_b   7.42547063
_cell_length_c   7.42547063
_cell_angle_alpha   118.74077303
_cell_angle_beta   118.74077303
_cell_angle_gamma   92.19524343
_symmetry_Int_Tables_number   1
_chemical_formula_structural   K2Sr(PO3)4
_chemical_formula_sum   'K2 Sr1 P4 O12'
_cell_volume   294.78172304
_cell_formula_units_Z   1
loop_
 _symmetry_equiv_pos_site_id
 _symmetry_equiv_pos_as_xyz
  1  'x, y, z'
loop_
 _atom_site_type_symbol
 _atom_site_label
 _atom_site_symmetry_multiplicity
 _atom_site_fract_x
 _atom_site_fract_y
 _atom_site_fract_z
 _atom_site_occupancy
  K  K0  1  0.325896  0.325896  0.000000  1
  K  K1  1  0.674104  0.674104  0.000000  1
  Sr  Sr2  1  0.250000  0.750000  0.500000  1
  P  P3  1  0.814797  0.875438  0.624451  1
  P  P4  1  0.124562  0.749013  0.939359  1
  P  P5  1  0.809654  0.185203  0.060641  1
  P  P6  1  0.250987  0.190346  0.375549  1
  O  O7  1  0.987383  0.128729  0.246723  1
  O  O8  1  0.882005  0.740660  0.753277  1
  O  O9  1  0.259340  0.012617  0.141345  1
  O  O10  1  0.854084  0.426579  0.193294  1
  O  O11  1  0.233286  0.660790  0.806706  1
  O  O12  1  0.971487  0.913256  0.562472  1
  O  O13  1  0.350784  0.409016  0.437528  1
  O  O14  1  0.086744  0.649216  0.058232  1
  O  O15  1  0.573421  0.766714  0.427505  1
  O  O16  1  0.590984  0.028513  0.941768  1
  O  O17  1  0.871271  0.117995  0.858655  1
  O  O18  1  0.339210  0.145916  0.572495  1
