# generated using pymatgen
data_PS3N5F2
_symmetry_space_group_name_H-M   'P 1'
_cell_length_a   11.52852389
_cell_length_b   11.52852389
_cell_length_c   11.52852400
_cell_angle_alpha   117.55470367
_cell_angle_beta   117.55470367
_cell_angle_gamma   117.55470632
_symmetry_Int_Tables_number   1
_chemical_formula_structural   PS3N5F2
_chemical_formula_sum   'P3 S9 N15 F6'
_cell_volume   612.94765277
_cell_formula_units_Z   3
loop_
 _symmetry_equiv_pos_site_id
 _symmetry_equiv_pos_as_xyz
  1  'x, y, z'
loop_
 _atom_site_type_symbol
 _atom_site_label
 _atom_site_symmetry_multiplicity
 _atom_site_fract_x
 _atom_site_fract_y
 _atom_site_fract_z
 _atom_site_occupancy
  P  P0  1  0.425136  0.425136  0.702947  1
  P  P1  1  0.702947  0.425136  0.425136  1
  P  P2  1  0.425136  0.702947  0.425136  1
  S  S3  1  0.132581  0.132581  0.744651  1
  S  S4  1  0.132581  0.744651  0.132581  1
  S  S5  1  0.008528  0.607169  0.466156  1
  S  S6  1  0.744651  0.132581  0.132581  1
  S  S7  1  0.466156  0.008528  0.607169  1
  S  S8  1  0.008528  0.466156  0.607169  1
  S  S9  1  0.607169  0.008528  0.466156  1
  S  S10  1  0.607169  0.466156  0.008528  1
  S  S11  1  0.466156  0.607169  0.008528  1
  N  N12  1  0.804779  0.534010  0.394266  1
  N  N13  1  0.804779  0.394266  0.534010  1
  N  N14  1  0.674088  0.173120  0.674088  1
  N  N15  1  0.813422  0.318459  0.181676  1
  N  N16  1  0.394266  0.804779  0.534010  1
  N  N17  1  0.181676  0.318459  0.813422  1
  N  N18  1  0.674088  0.674088  0.173120  1
  N  N19  1  0.318459  0.813422  0.181676  1
  N  N20  1  0.534010  0.394266  0.804779  1
  N  N21  1  0.318459  0.181676  0.813422  1
  N  N22  1  0.534010  0.804779  0.394266  1
  N  N23  1  0.181676  0.813422  0.318459  1
  N  N24  1  0.394266  0.534010  0.804779  1
  N  N25  1  0.813422  0.181676  0.318459  1
  N  N26  1  0.173120  0.674088  0.674088  1
  F  F27  1  0.747671  0.592888  0.592888  1
  F  F28  1  0.401329  0.169134  0.169134  1
  F  F29  1  0.592888  0.592888  0.747671  1
  F  F30  1  0.169134  0.169134  0.401329  1
  F  F31  1  0.169134  0.401329  0.169134  1
  F  F32  1  0.592888  0.747671  0.592888  1
