# generated using pymatgen
data_H2O
_symmetry_space_group_name_H-M   'P 1'
_cell_length_a   3.96558600
_cell_length_b   8.19203200
_cell_length_c   8.26164556
_cell_angle_alpha   89.06435074
_cell_angle_beta   90.00000000
_cell_angle_gamma   90.00000000
_symmetry_Int_Tables_number   1
_chemical_formula_structural   H2O
_chemical_formula_sum   'H24 O12'
_cell_volume   268.35374571
_cell_formula_units_Z   12
loop_
 _symmetry_equiv_pos_site_id
 _symmetry_equiv_pos_as_xyz
  1  'x, y, z'
loop_
 _atom_site_type_symbol
 _atom_site_label
 _atom_site_symmetry_multiplicity
 _atom_site_fract_x
 _atom_site_fract_y
 _atom_site_fract_z
 _atom_site_occupancy
  H  H0  1  0.607781  0.301336  0.159532  1
  H  H1  1  0.688861  0.530768  0.977742  1
  H  H2  1  0.055873  0.970386  0.476069  1
  H  H3  1  0.962871  0.527480  0.466918  1
  H  H4  1  0.983067  0.824243  0.594801  1
  H  H5  1  0.016495  0.096642  0.168469  1
  H  H6  1  0.107781  0.698664  0.840468  1
  H  H7  1  0.766547  0.673087  0.096118  1
  H  H8  1  0.516495  0.903358  0.831531  1
  H  H9  1  0.266547  0.326913  0.903882  1
  H  H10  1  0.858102  0.155747  0.791424  1
  H  H11  1  0.640849  0.800158  0.340901  1
  H  H12  1  0.188861  0.469232  0.022258  1
  H  H13  1  0.462871  0.472520  0.533082  1
  H  H14  1  0.358102  0.844253  0.208576  1
  H  H15  1  0.239345  0.593671  0.336923  1
  H  H16  1  0.555873  0.029614  0.523931  1
  H  H17  1  0.438298  0.023203  0.971777  1
  H  H18  1  0.140849  0.199842  0.659099  1
  H  H19  1  0.895751  0.344576  0.286602  1
  H  H20  1  0.483067  0.175757  0.405199  1
  H  H21  1  0.739345  0.406329  0.663077  1
  H  H22  1  0.395751  0.655424  0.713398  1
  H  H23  1  0.938298  0.976797  0.028223  1
  O  O24  1  0.377272  0.111972  0.496173  1
  O  O25  1  0.617857  0.996848  0.891040  1
  O  O26  1  0.117857  0.003152  0.108960  1
  O  O27  1  0.877272  0.888028  0.503827  1
  O  O28  1  0.643222  0.505811  0.611891  1
  O  O29  1  0.368845  0.389964  0.995354  1
  O  O30  1  0.000816  0.246334  0.748264  1
  O  O31  1  0.868845  0.610036  0.004646  1
  O  O32  1  0.500816  0.753666  0.251736  1
  O  O33  1  0.750042  0.254245  0.247802  1
  O  O34  1  0.250042  0.745755  0.752198  1
  O  O35  1  0.143222  0.494189  0.388109  1
