# generated using pymatgen
data_Li2V(PO4)2
_symmetry_space_group_name_H-M   'P 1'
_cell_length_a   4.62398800
_cell_length_b   5.07726056
_cell_length_c   13.95532515
_cell_angle_alpha   84.10767764
_cell_angle_beta   89.99958803
_cell_angle_gamma   62.91004150
_symmetry_Int_Tables_number   1
_chemical_formula_structural   Li2V(PO4)2
_chemical_formula_sum   'Li4 V2 P4 O16'
_cell_volume   289.74266701
_cell_formula_units_Z   2
loop_
 _symmetry_equiv_pos_site_id
 _symmetry_equiv_pos_as_xyz
  1  'x, y, z'
loop_
 _atom_site_type_symbol
 _atom_site_label
 _atom_site_symmetry_multiplicity
 _atom_site_fract_x
 _atom_site_fract_y
 _atom_site_fract_z
 _atom_site_occupancy
  Li  Li0  1  0.927231  0.024373  0.762017  1
  Li  Li1  1  0.048367  0.024406  0.262011  1
  Li  Li2  1  0.629200  0.670121  0.663165  1
  Li  Li3  1  0.700683  0.670121  0.163163  1
  V  V4  1  0.006844  0.993315  0.994823  1
  V  V5  1  0.999784  0.993331  0.494800  1
  P  P6  1  0.327235  0.318265  0.612830  1
  P  P7  1  0.354472  0.318269  0.112851  1
  P  P8  1  0.684786  0.674409  0.382727  1
  P  P9  1  0.640826  0.674399  0.882727  1
  O  O10  1  0.208085  0.208939  0.032511  1
  O  O11  1  0.263500  0.881997  0.879769  1
  O  O12  1  0.152371  0.340589  0.199960  1
  O  O13  1  0.431796  0.777594  0.464090  1
  O  O14  1  0.033630  0.625289  0.578346  1
  O  O15  1  0.722306  0.081057  0.124885  1
  O  O16  1  0.196618  0.081057  0.624878  1
  O  O17  1  0.703393  0.351116  0.912969  1
  O  O18  1  0.774484  0.714924  0.786361  1
  O  O19  1  0.790615  0.777596  0.964088  1
  O  O20  1  0.510620  0.714957  0.286364  1
  O  O21  1  0.854496  0.882005  0.379763  1
  O  O22  1  0.945565  0.351112  0.412945  1
  O  O23  1  0.507025  0.340601  0.699936  1
  O  O24  1  0.582959  0.208930  0.532508  1
  O  O25  1  0.341065  0.625303  0.078366  1
