# generated using pymatgen
data_PbS
_symmetry_space_group_name_H-M   'P 1'
_cell_length_a   4.24666494
_cell_length_b   4.24666494
_cell_length_c   32.82622700
_cell_angle_alpha   90.00000000
_cell_angle_beta   90.00000000
_cell_angle_gamma   90.02615936
_symmetry_Int_Tables_number   1
_chemical_formula_structural   PbS
_chemical_formula_sum   'Pb4 S4'
_cell_volume   591.99347108
_cell_formula_units_Z   4
loop_
 _symmetry_equiv_pos_site_id
 _symmetry_equiv_pos_as_xyz
  1  'x, y, z'
loop_
 _atom_site_type_symbol
 _atom_site_label
 _atom_site_symmetry_multiplicity
 _atom_site_fract_x
 _atom_site_fract_y
 _atom_site_fract_z
 _atom_site_occupancy
  Pb  Pb0  1  0.837012  0.162988  0.206724  1
  Pb  Pb1  1  0.162988  0.837012  0.793276  1
  Pb  Pb2  1  0.337012  0.662988  0.293276  1
  Pb  Pb3  1  0.662988  0.337012  0.706724  1
  S  S4  1  0.161054  0.838946  0.711265  1
  S  S5  1  0.838946  0.161054  0.288735  1
  S  S6  1  0.661054  0.338946  0.788735  1
  S  S7  1  0.338946  0.661054  0.211265  1
