# generated using pymatgen
data_Ca2VBiO6
_symmetry_space_group_name_H-M   'P 1'
_cell_length_a   7.53600562
_cell_length_b   7.53600562
_cell_length_c   5.60718200
_cell_angle_alpha   90.00000000
_cell_angle_beta   90.00000000
_cell_angle_gamma   106.49353902
_symmetry_Int_Tables_number   1
_chemical_formula_structural   Ca2VBiO6
_chemical_formula_sum   'Ca4 V2 Bi2 O12'
_cell_volume   305.33637716
_cell_formula_units_Z   2
loop_
 _symmetry_equiv_pos_site_id
 _symmetry_equiv_pos_as_xyz
  1  'x, y, z'
loop_
 _atom_site_type_symbol
 _atom_site_label
 _atom_site_symmetry_multiplicity
 _atom_site_fract_x
 _atom_site_fract_y
 _atom_site_fract_z
 _atom_site_occupancy
  Ca  Ca0  1  0.304593  0.090780  0.758464  1
  Ca  Ca1  1  0.695407  0.909220  0.258464  1
  Ca  Ca2  1  0.090780  0.304593  0.258464  1
  Ca  Ca3  1  0.909220  0.695407  0.758464  1
  V  V4  1  0.184141  0.815859  0.304632  1
  V  V5  1  0.815859  0.184141  0.804632  1
  Bi  Bi6  1  0.410427  0.589573  0.743041  1
  Bi  Bi7  1  0.589573  0.410427  0.243041  1
  O  O8  1  0.648668  0.658290  0.004344  1
  O  O9  1  0.183868  0.816132  0.991850  1
  O  O10  1  0.404366  0.907702  0.425619  1
  O  O11  1  0.595634  0.092298  0.925619  1
  O  O12  1  0.658290  0.648668  0.504344  1
  O  O13  1  0.053030  0.946970  0.435622  1
  O  O14  1  0.341710  0.351332  0.004344  1
  O  O15  1  0.351332  0.341710  0.504344  1
  O  O16  1  0.946970  0.053030  0.935622  1
  O  O17  1  0.816132  0.183868  0.491850  1
  O  O18  1  0.907702  0.404366  0.925619  1
  O  O19  1  0.092298  0.595634  0.425619  1
