# generated using pymatgen
data_Li2MnSiO4
_symmetry_space_group_name_H-M   'P 1'
_cell_length_a   5.04872200
_cell_length_b   5.44145500
_cell_length_c   12.75411500
_cell_angle_alpha   89.99784783
_cell_angle_beta   90.00022131
_cell_angle_gamma   90.00045862
_symmetry_Int_Tables_number   1
_chemical_formula_structural   Li2MnSiO4
_chemical_formula_sum   'Li8 Mn4 Si4 O16'
_cell_volume   350.38606679
_cell_formula_units_Z   4
loop_
 _symmetry_equiv_pos_site_id
 _symmetry_equiv_pos_as_xyz
  1  'x, y, z'
loop_
 _atom_site_type_symbol
 _atom_site_label
 _atom_site_symmetry_multiplicity
 _atom_site_fract_x
 _atom_site_fract_y
 _atom_site_fract_z
 _atom_site_occupancy
  Li  Li0  1  0.556725  0.331073  0.374537  1
  Li  Li1  1  0.556721  0.331075  0.874536  1
  Li  Li2  1  0.556727  0.331073  0.125468  1
  Li  Li3  1  0.556728  0.331073  0.625463  1
  Li  Li4  1  0.056724  0.668950  0.124539  1
  Li  Li5  1  0.056723  0.668945  0.624533  1
  Li  Li6  1  0.056726  0.668947  0.375465  1
  Li  Li7  1  0.056723  0.668942  0.875467  1
  Mn  Mn8  1  0.559332  0.833691  0.999976  1
  Mn  Mn9  1  0.059570  0.165997  0.749995  1
  Mn  Mn10  1  0.559284  0.834020  0.500023  1
  Mn  Mn11  1  0.059351  0.166007  0.249979  1
  Si  Si12  1  0.049910  0.179441  0.000002  1
  Si  Si13  1  0.049915  0.179428  0.499998  1
  Si  Si14  1  0.549914  0.820597  0.250005  1
  Si  Si15  1  0.549911  0.820580  0.749999  1
  O  O16  1  0.722614  0.187820  0.500005  1
  O  O17  1  0.722613  0.187894  0.000016  1
  O  O18  1  0.222613  0.812204  0.249998  1
  O  O19  1  0.222618  0.812114  0.749987  1
  O  O20  1  0.144286  0.886544  0.499996  1
  O  O21  1  0.144218  0.886539  0.000008  1
  O  O22  1  0.644289  0.113481  0.250007  1
  O  O23  1  0.644223  0.113482  0.749993  1
  O  O24  1  0.162702  0.320567  0.394075  1
  O  O25  1  0.162716  0.320586  0.894089  1
  O  O26  1  0.662725  0.679424  0.144092  1
  O  O27  1  0.662706  0.679469  0.644079  1
  O  O28  1  0.662702  0.679457  0.355930  1
  O  O29  1  0.662716  0.679432  0.855911  1
  O  O30  1  0.162710  0.320555  0.105923  1
  O  O31  1  0.162727  0.320596  0.605909  1
