# generated using pymatgen
data_Zn3BPO7
_symmetry_space_group_name_H-M   'P 1'
_cell_length_a   8.14329087
_cell_length_b   8.14329087
_cell_length_c   4.96153750
_cell_angle_alpha   72.44941873
_cell_angle_beta   72.44941873
_cell_angle_gamma   105.49519154
_symmetry_Int_Tables_number   1
_chemical_formula_structural   Zn3BPO7
_chemical_formula_sum   'Zn6 B2 P2 O14'
_cell_volume   274.91573986
_cell_formula_units_Z   2
loop_
 _symmetry_equiv_pos_site_id
 _symmetry_equiv_pos_as_xyz
  1  'x, y, z'
loop_
 _atom_site_type_symbol
 _atom_site_label
 _atom_site_symmetry_multiplicity
 _atom_site_fract_x
 _atom_site_fract_y
 _atom_site_fract_z
 _atom_site_occupancy
  Zn  Zn0  1  0.352256  0.849776  0.769967  1
  Zn  Zn1  1  0.849776  0.352256  0.769967  1
  Zn  Zn2  1  0.796765  0.067460  0.463833  1
  Zn  Zn3  1  0.299953  0.518388  0.463794  1
  Zn  Zn4  1  0.518388  0.299953  0.463794  1
  Zn  Zn5  1  0.067460  0.796765  0.463833  1
  B  B6  1  0.483294  0.055923  0.100829  1
  B  B7  1  0.055923  0.483294  0.100829  1
  P  P8  1  0.060820  0.060820  0.858782  1
  P  P9  1  0.606224  0.606224  0.766814  1
  O  O10  1  0.337311  0.900312  0.146852  1
  O  O11  1  0.802678  0.603088  0.728077  1
  O  O12  1  0.604527  0.190106  0.801084  1
  O  O13  1  0.108810  0.910948  0.760315  1
  O  O14  1  0.190106  0.604527  0.801084  1
  O  O15  1  0.075360  0.514578  0.352979  1
  O  O16  1  0.603088  0.802678  0.728077  1
  O  O17  1  0.981094  0.981094  0.220589  1
  O  O18  1  0.240606  0.240606  0.719592  1
  O  O19  1  0.461568  0.461568  0.100562  1
  O  O20  1  0.900312  0.337311  0.146852  1
  O  O21  1  0.910948  0.108810  0.760315  1
  O  O22  1  0.555293  0.555293  0.516204  1
  O  O23  1  0.514578  0.075360  0.352979  1
