# generated using pymatgen
data_Ag2S
_symmetry_space_group_name_H-M   'P 1'
_cell_length_a   6.50614400
_cell_length_b   4.25678200
_cell_length_c   4.72456173
_cell_angle_alpha   76.94042706
_cell_angle_beta   90.00000000
_cell_angle_gamma   90.00000000
_symmetry_Int_Tables_number   1
_chemical_formula_structural   Ag2S
_chemical_formula_sum   'Ag4 S2'
_cell_volume   127.46356022
_cell_formula_units_Z   2
loop_
 _symmetry_equiv_pos_site_id
 _symmetry_equiv_pos_as_xyz
  1  'x, y, z'
loop_
 _atom_site_type_symbol
 _atom_site_label
 _atom_site_symmetry_multiplicity
 _atom_site_fract_x
 _atom_site_fract_y
 _atom_site_fract_z
 _atom_site_occupancy
  Ag  Ag0  1  0.501857  0.470079  0.522282  1
  Ag  Ag1  1  0.368726  0.859998  0.929639  1
  Ag  Ag2  1  0.868726  0.140002  0.070361  1
  Ag  Ag3  1  0.001857  0.529921  0.477718  1
  S  S4  1  0.254416  0.284553  0.210962  1
  S  S5  1  0.754416  0.715447  0.789038  1
