# generated using pymatgen
data_Li4CO4
_symmetry_space_group_name_H-M   'P 1'
_cell_length_a   5.16204933
_cell_length_b   5.16204933
_cell_length_c   5.86993400
_cell_angle_alpha   90.00000000
_cell_angle_beta   90.00000000
_cell_angle_gamma   90.55352396
_symmetry_Int_Tables_number   1
_chemical_formula_structural   Li4CO4
_chemical_formula_sum   'Li8 C2 O8'
_cell_volume   156.40738376
_cell_formula_units_Z   2
loop_
 _symmetry_equiv_pos_site_id
 _symmetry_equiv_pos_as_xyz
  1  'x, y, z'
loop_
 _atom_site_type_symbol
 _atom_site_label
 _atom_site_symmetry_multiplicity
 _atom_site_fract_x
 _atom_site_fract_y
 _atom_site_fract_z
 _atom_site_occupancy
  Li  Li0  1  0.891859  0.435499  0.539875  1
  Li  Li1  1  0.564501  0.108141  0.039875  1
  Li  Li2  1  0.108141  0.564501  0.039875  1
  Li  Li3  1  0.580023  0.580023  0.900911  1
  Li  Li4  1  0.955259  0.955259  0.741736  1
  Li  Li5  1  0.419977  0.419977  0.400911  1
  Li  Li6  1  0.435499  0.891859  0.539875  1
  Li  Li7  1  0.044741  0.044741  0.241736  1
  C  C8  1  0.694575  0.694575  0.237355  1
  C  C9  1  0.305425  0.305425  0.737355  1
  O  O10  1  0.422563  0.739227  0.218424  1
  O  O11  1  0.260773  0.577437  0.718424  1
  O  O12  1  0.577437  0.260773  0.718424  1
  O  O13  1  0.739227  0.422563  0.218424  1
  O  O14  1  0.820064  0.820064  0.047259  1
  O  O15  1  0.179936  0.179936  0.547259  1
  O  O16  1  0.210270  0.210270  0.941561  1
  O  O17  1  0.789730  0.789730  0.441561  1
