# generated using pymatgen
data_Ga2Te3(HO2)6
_symmetry_space_group_name_H-M   'P 1'
_cell_length_a   8.70027440
_cell_length_b   8.70027440
_cell_length_c   8.70027390
_cell_angle_alpha   66.59492476
_cell_angle_beta   66.59492476
_cell_angle_gamma   66.59492323
_symmetry_Int_Tables_number   1
_chemical_formula_structural   Ga2Te3(HO2)6
_chemical_formula_sum   'Ga4 Te6 H12 O24'
_cell_volume   531.76253019
_cell_formula_units_Z   2
loop_
 _symmetry_equiv_pos_site_id
 _symmetry_equiv_pos_as_xyz
  1  'x, y, z'
loop_
 _atom_site_type_symbol
 _atom_site_label
 _atom_site_symmetry_multiplicity
 _atom_site_fract_x
 _atom_site_fract_y
 _atom_site_fract_z
 _atom_site_occupancy
  Ga  Ga0  1  0.091824  0.091824  0.091824  1
  Ga  Ga1  1  0.591824  0.591824  0.591824  1
  Ga  Ga2  1  0.337358  0.337358  0.337358  1
  Ga  Ga3  1  0.837358  0.837358  0.837358  1
  Te  Te4  1  0.901144  0.441197  0.810725  1
  Te  Te5  1  0.441197  0.810725  0.901144  1
  Te  Te6  1  0.810725  0.901144  0.441197  1
  Te  Te7  1  0.941197  0.401144  0.310725  1
  Te  Te8  1  0.401144  0.310725  0.941197  1
  Te  Te9  1  0.310725  0.941197  0.401144  1
  H  H10  1  0.348392  0.355638  0.631568  1
  H  H11  1  0.355638  0.631568  0.348392  1
  H  H12  1  0.631568  0.348392  0.355638  1
  H  H13  1  0.855638  0.848392  0.131568  1
  H  H14  1  0.848392  0.131568  0.855638  1
  H  H15  1  0.131568  0.855638  0.848392  1
  H  H16  1  0.309349  0.171757  0.683011  1
  H  H17  1  0.171757  0.683011  0.309349  1
  H  H18  1  0.683012  0.309349  0.171757  1
  H  H19  1  0.671757  0.809349  0.183011  1
  H  H20  1  0.809349  0.183011  0.671757  1
  H  H21  1  0.183011  0.671757  0.809349  1
  O  O22  1  0.883203  0.229482  0.997950  1
  O  O23  1  0.229482  0.997950  0.883203  1
  O  O24  1  0.997950  0.883203  0.229482  1
  O  O25  1  0.729482  0.383203  0.497950  1
  O  O26  1  0.383203  0.497950  0.729482  1
  O  O27  1  0.497950  0.729482  0.383203  1
  O  O28  1  0.175605  0.304136  0.964959  1
  O  O29  1  0.304136  0.964959  0.175605  1
  O  O30  1  0.964959  0.175605  0.304136  1
  O  O31  1  0.804136  0.675605  0.464959  1
  O  O32  1  0.675605  0.464959  0.804136  1
  O  O33  1  0.464959  0.804136  0.675605  1
  O  O34  1  0.816101  0.599859  0.946039  1
  O  O35  1  0.599859  0.946039  0.816101  1
  O  O36  1  0.946039  0.816101  0.599859  1
  O  O37  1  0.099859  0.316101  0.446039  1
  O  O38  1  0.316101  0.446039  0.099859  1
  O  O39  1  0.446039  0.099859  0.316101  1
  O  O40  1  0.362855  0.261483  0.585373  1
  O  O41  1  0.261483  0.585373  0.362855  1
  O  O42  1  0.585373  0.362855  0.261483  1
  O  O43  1  0.761483  0.862855  0.085373  1
  O  O44  1  0.862855  0.085373  0.761483  1
  O  O45  1  0.085373  0.761483  0.862855  1
