# generated using pymatgen
data_ZnS
_symmetry_space_group_name_H-M   'P 1'
_cell_length_a   12.78076139
_cell_length_b   12.78076139
_cell_length_c   12.78076197
_cell_angle_alpha   17.31869308
_cell_angle_beta   17.31869308
_cell_angle_gamma   17.31869410
_symmetry_Int_Tables_number   1
_chemical_formula_structural   ZnS
_chemical_formula_sum   'Zn4 S4'
_cell_volume   161.44043575
_cell_formula_units_Z   4
loop_
 _symmetry_equiv_pos_site_id
 _symmetry_equiv_pos_as_xyz
  1  'x, y, z'
loop_
 _atom_site_type_symbol
 _atom_site_label
 _atom_site_symmetry_multiplicity
 _atom_site_fract_x
 _atom_site_fract_y
 _atom_site_fract_z
 _atom_site_occupancy
  Zn  Zn0  1  0.416656  0.416656  0.416656  1
  Zn  Zn1  1  0.000033  0.000033  0.000033  1
  Zn  Zn2  1  0.583373  0.583373  0.583373  1
  Zn  Zn3  1  0.833322  0.833322  0.833322  1
  S  S4  1  0.645914  0.645914  0.645914  1
  S  S5  1  0.895842  0.895842  0.895842  1
  S  S6  1  0.479121  0.479121  0.479121  1
  S  S7  1  0.062506  0.062506  0.062506  1
