# generated using pymatgen
data_CsSiTe3
_symmetry_space_group_name_H-M   'P 1'
_cell_length_a   8.35938297
_cell_length_b   8.35938297
_cell_length_c   13.68171983
_cell_angle_alpha   84.54448273
_cell_angle_beta   84.54448273
_cell_angle_gamma   117.62240571
_symmetry_Int_Tables_number   1
_chemical_formula_structural   CsSiTe3
_chemical_formula_sum   'Cs4 Si4 Te12'
_cell_volume   832.70037497
_cell_formula_units_Z   4
loop_
 _symmetry_equiv_pos_site_id
 _symmetry_equiv_pos_as_xyz
  1  'x, y, z'
loop_
 _atom_site_type_symbol
 _atom_site_label
 _atom_site_symmetry_multiplicity
 _atom_site_fract_x
 _atom_site_fract_y
 _atom_site_fract_z
 _atom_site_occupancy
  Cs  Cs0  1  0.723978  0.223034  0.189516  1
  Cs  Cs1  1  0.479749  0.658758  0.413029  1
  Cs  Cs2  1  0.223034  0.723978  0.689516  1
  Cs  Cs3  1  0.658758  0.479749  0.913029  1
  Si  Si4  1  0.169175  0.056679  0.388692  1
  Si  Si5  1  0.048731  0.899667  0.132605  1
  Si  Si6  1  0.899667  0.048731  0.632605  1
  Si  Si7  1  0.056679  0.169175  0.888692  1
  Te  Te8  1  0.206783  0.197735  0.205036  1
  Te  Te9  1  0.142118  0.686693  0.224616  1
  Te  Te10  1  0.457803  0.153345  0.454791  1
  Te  Te11  1  0.968269  0.704294  0.415185  1
  Te  Te12  1  0.153345  0.457803  0.954791  1
  Te  Te13  1  0.712498  0.768031  0.132861  1
  Te  Te14  1  0.197735  0.206783  0.705036  1
  Te  Te15  1  0.768031  0.712498  0.632861  1
  Te  Te16  1  0.686693  0.142118  0.724616  1
  Te  Te17  1  0.199284  0.971374  0.951569  1
  Te  Te18  1  0.971374  0.199284  0.451569  1
  Te  Te19  1  0.704294  0.968269  0.915185  1
