# generated using pymatgen
data_K3VCO8
_symmetry_space_group_name_H-M   'P 1'
_cell_length_a   6.57163935
_cell_length_b   6.57163935
_cell_length_c   5.71178516
_cell_angle_alpha   67.36849994
_cell_angle_beta   67.36849994
_cell_angle_gamma   91.34429933
_symmetry_Int_Tables_number   1
_chemical_formula_structural   K3VCO8
_chemical_formula_sum   'K3 V1 C1 O8'
_cell_volume   205.84238820
_cell_formula_units_Z   1
loop_
 _symmetry_equiv_pos_site_id
 _symmetry_equiv_pos_as_xyz
  1  'x, y, z'
loop_
 _atom_site_type_symbol
 _atom_site_label
 _atom_site_symmetry_multiplicity
 _atom_site_fract_x
 _atom_site_fract_y
 _atom_site_fract_z
 _atom_site_occupancy
  K  K0  1  0.405669  0.405669  0.091700  1
  K  K1  1  0.081839  0.648224  0.637614  1
  K  K2  1  0.648224  0.081839  0.637614  1
  V  V3  1  0.998366  0.998366  0.002128  1
  C  C4  1  0.661672  0.661672  0.350844  1
  O  O5  1  0.753688  0.753688  0.071307  1
  O  O6  1  0.105811  0.105811  0.652997  1
  O  O7  1  0.249674  0.970009  0.091291  1
  O  O8  1  0.767818  0.182005  0.065566  1
  O  O9  1  0.182005  0.767818  0.065566  1
  O  O10  1  0.496236  0.496236  0.494733  1
  O  O11  1  0.755398  0.755398  0.457828  1
  O  O12  1  0.970009  0.249674  0.091291  1
