# generated using pymatgen
data_Na2CdSnS4
_symmetry_space_group_name_H-M   'P 1'
_cell_length_a   6.91518651
_cell_length_b   6.91518651
_cell_length_c   6.46666493
_cell_angle_alpha   63.22118276
_cell_angle_beta   63.22118276
_cell_angle_gamma   98.76584157
_symmetry_Int_Tables_number   1
_chemical_formula_structural   Na2CdSnS4
_chemical_formula_sum   'Na2 Cd1 Sn1 S4'
_cell_volume   220.60337409
_cell_formula_units_Z   1
loop_
 _symmetry_equiv_pos_site_id
 _symmetry_equiv_pos_as_xyz
  1  'x, y, z'
loop_
 _atom_site_type_symbol
 _atom_site_label
 _atom_site_symmetry_multiplicity
 _atom_site_fract_x
 _atom_site_fract_y
 _atom_site_fract_z
 _atom_site_occupancy
  Na  Na0  1  0.523980  0.476020  0.500000  1
  Na  Na1  1  0.777702  0.222298  0.000000  1
  Cd  Cd2  1  0.011244  0.988756  0.500000  1
  Sn  Sn3  1  0.261340  0.738660  0.000000  1
  S  S4  1  0.924135  0.652775  0.971949  1
  S  S5  1  0.613265  0.845940  0.559654  1
  S  S6  1  0.154060  0.386735  0.440346  1
  S  S7  1  0.347225  0.075865  0.028051  1
