# generated using pymatgen
data_MgH12SeO9
_symmetry_space_group_name_H-M   'P 1'
_cell_length_a   5.99897031
_cell_length_b   5.99897031
_cell_length_c   5.99896975
_cell_angle_alpha   96.86554412
_cell_angle_beta   96.86554412
_cell_angle_gamma   96.86554598
_symmetry_Int_Tables_number   1
_chemical_formula_structural   MgH12SeO9
_chemical_formula_sum   'Mg1 H12 Se1 O9'
_cell_volume   210.83331924
_cell_formula_units_Z   1
loop_
 _symmetry_equiv_pos_site_id
 _symmetry_equiv_pos_as_xyz
  1  'x, y, z'
loop_
 _atom_site_type_symbol
 _atom_site_label
 _atom_site_symmetry_multiplicity
 _atom_site_fract_x
 _atom_site_fract_y
 _atom_site_fract_z
 _atom_site_occupancy
  Mg  Mg0  1  0.993993  0.993993  0.993993  1
  H  H1  1  0.450976  0.043806  0.960685  1
  H  H2  1  0.960685  0.450976  0.043806  1
  H  H3  1  0.043806  0.960685  0.450976  1
  H  H4  1  0.361006  0.260604  0.863133  1
  H  H5  1  0.863133  0.361006  0.260604  1
  H  H6  1  0.260604  0.863133  0.361006  1
  H  H7  1  0.582974  0.717839  0.925356  1
  H  H8  1  0.925356  0.582974  0.717839  1
  H  H9  1  0.717839  0.925356  0.582974  1
  H  H10  1  0.617491  0.816824  0.186168  1
  H  H11  1  0.186168  0.617491  0.816824  1
  H  H12  1  0.816824  0.186168  0.617491  1
  Se  Se13  1  0.476629  0.476629  0.476629  1
  O  O14  1  0.423722  0.508515  0.756160  1
  O  O15  1  0.756160  0.423722  0.508515  1
  O  O16  1  0.508515  0.756160  0.423722  1
  O  O17  1  0.314673  0.118651  0.927370  1
  O  O18  1  0.927370  0.314673  0.118651  1
  O  O19  1  0.118651  0.927370  0.314673  1
  O  O20  1  0.657238  0.855025  0.035963  1
  O  O21  1  0.035963  0.657238  0.855025  1
  O  O22  1  0.855025  0.035963  0.657238  1
