# generated using pymatgen
data_Cs2Al2As2O7
_symmetry_space_group_name_H-M   'P 1'
_cell_length_a   7.34830718
_cell_length_b   7.34830718
_cell_length_c   7.34830718
_cell_angle_alpha   135.52059448
_cell_angle_beta   103.98978116
_cell_angle_gamma   92.56477521
_symmetry_Int_Tables_number   1
_chemical_formula_structural   Cs2Al2As2O7
_chemical_formula_sum   'Cs2 Al2 As2 O7'
_cell_volume   255.62467869
_cell_formula_units_Z   1
loop_
 _symmetry_equiv_pos_site_id
 _symmetry_equiv_pos_as_xyz
  1  'x, y, z'
loop_
 _atom_site_type_symbol
 _atom_site_label
 _atom_site_symmetry_multiplicity
 _atom_site_fract_x
 _atom_site_fract_y
 _atom_site_fract_z
 _atom_site_occupancy
  Cs  Cs0  1  0.344478  0.000000  0.344478  1
  Cs  Cs1  1  0.698922  0.500000  0.198922  1
  Al  Al2  1  0.775607  0.837983  0.937624  1
  Al  Al3  1  0.099641  0.162017  0.937624  1
  As  As4  1  0.316338  0.700043  0.616295  1
  As  As5  1  0.916252  0.299957  0.616295  1
  O  O6  1  0.253175  0.997458  0.743707  1
  O  O7  1  0.000089  0.000000  0.000089  1
  O  O8  1  0.577901  0.837724  0.740177  1
  O  O9  1  0.253175  0.509468  0.255717  1
  O  O10  1  0.746250  0.002542  0.255717  1
  O  O11  1  0.746250  0.490532  0.743707  1
  O  O12  1  0.902453  0.162276  0.740177  1
