# generated using pymatgen
data_H2C3O4
_symmetry_space_group_name_H-M   'P 1'
_cell_length_a   6.32331600
_cell_length_b   6.32331600
_cell_length_c   11.26367400
_cell_angle_alpha   90.00000000
_cell_angle_beta   90.00000000
_cell_angle_gamma   90.00000000
_symmetry_Int_Tables_number   1
_chemical_formula_structural   H2C3O4
_chemical_formula_sum   'H8 C12 O16'
_cell_volume   450.37040457
_cell_formula_units_Z   4
loop_
 _symmetry_equiv_pos_site_id
 _symmetry_equiv_pos_as_xyz
  1  'x, y, z'
loop_
 _atom_site_type_symbol
 _atom_site_label
 _atom_site_symmetry_multiplicity
 _atom_site_fract_x
 _atom_site_fract_y
 _atom_site_fract_z
 _atom_site_occupancy
  H  H0  1  0.591896  0.762588  0.046150  1
  H  H1  1  0.408104  0.237412  0.546150  1
  H  H2  1  0.262588  0.908104  0.796150  1
  H  H3  1  0.737412  0.091896  0.296150  1
  H  H4  1  0.237412  0.408104  0.453850  1
  H  H5  1  0.908104  0.262588  0.203850  1
  H  H6  1  0.091896  0.737412  0.703850  1
  H  H7  1  0.762588  0.591896  0.953850  1
  C  C8  1  0.389552  0.389552  0.500000  1
  C  C9  1  0.110448  0.889552  0.750000  1
  C  C10  1  0.179861  0.919574  0.303534  1
  C  C11  1  0.580426  0.679861  0.553534  1
  C  C12  1  0.679861  0.580426  0.446466  1
  C  C13  1  0.820139  0.080426  0.803534  1
  C  C14  1  0.320139  0.419574  0.946466  1
  C  C15  1  0.889552  0.110448  0.250000  1
  C  C16  1  0.419574  0.320139  0.053534  1
  C  C17  1  0.610448  0.610448  0.000000  1
  C  C18  1  0.919574  0.179861  0.696466  1
  C  C19  1  0.080426  0.820139  0.196466  1
  O  O20  1  0.558623  0.410747  0.414410  1
  O  O21  1  0.910747  0.941377  0.164410  1
  O  O22  1  0.058623  0.089253  0.335590  1
  O  O23  1  0.833166  0.637022  0.387749  1
  O  O24  1  0.089253  0.058623  0.664410  1
  O  O25  1  0.410747  0.558623  0.585590  1
  O  O26  1  0.137022  0.666834  0.137749  1
  O  O27  1  0.166834  0.362978  0.887749  1
  O  O28  1  0.862978  0.333166  0.637749  1
  O  O29  1  0.666834  0.137022  0.862251  1
  O  O30  1  0.637022  0.833166  0.612251  1
  O  O31  1  0.362978  0.166834  0.112251  1
  O  O32  1  0.941377  0.910747  0.835590  1
  O  O33  1  0.333166  0.862978  0.362251  1
  O  O34  1  0.441377  0.589253  0.914410  1
  O  O35  1  0.589253  0.441377  0.085590  1
