# generated using pymatgen
data_BaCuB2O5
_symmetry_space_group_name_H-M   'P 1'
_cell_length_a   5.66387553
_cell_length_b   5.66387553
_cell_length_c   4.11280104
_cell_angle_alpha   86.27064656
_cell_angle_beta   86.27064656
_cell_angle_gamma   109.56954036
_symmetry_Int_Tables_number   1
_chemical_formula_structural   BaCuB2O5
_chemical_formula_sum   'Ba1 Cu1 B2 O5'
_cell_volume   123.52196061
_cell_formula_units_Z   1
loop_
 _symmetry_equiv_pos_site_id
 _symmetry_equiv_pos_as_xyz
  1  'x, y, z'
loop_
 _atom_site_type_symbol
 _atom_site_label
 _atom_site_symmetry_multiplicity
 _atom_site_fract_x
 _atom_site_fract_y
 _atom_site_fract_z
 _atom_site_occupancy
  Ba  Ba0  1  0.997497  0.002503  0.000000  1
  Cu  Cu1  1  0.407375  0.592625  0.500000  1
  B  B2  1  0.870803  0.486116  0.595341  1
  B  B3  1  0.513884  0.129197  0.404659  1
  O  O4  1  0.761766  0.238234  0.500000  1
  O  O5  1  0.332488  0.234978  0.466950  1
  O  O6  1  0.765022  0.667512  0.533050  1
  O  O7  1  0.083338  0.538963  0.754142  1
  O  O8  1  0.461037  0.916662  0.245858  1
