# generated using pymatgen
data_H5NO
_symmetry_space_group_name_H-M   'P 1'
_cell_length_a   5.08541100
_cell_length_b   6.19599200
_cell_length_c   7.83453400
_cell_angle_alpha   90.00000000
_cell_angle_beta   90.00000000
_cell_angle_gamma   90.00000000
_symmetry_Int_Tables_number   1
_chemical_formula_structural   H5NO
_chemical_formula_sum   'H20 N4 O4'
_cell_volume   246.85963134
_cell_formula_units_Z   4
loop_
 _symmetry_equiv_pos_site_id
 _symmetry_equiv_pos_as_xyz
  1  'x, y, z'
loop_
 _atom_site_type_symbol
 _atom_site_label
 _atom_site_symmetry_multiplicity
 _atom_site_fract_x
 _atom_site_fract_y
 _atom_site_fract_z
 _atom_site_occupancy
  H  H0  1  0.750836  0.715712  0.361681  1
  H  H1  1  0.742541  0.699054  0.563572  1
  H  H2  1  0.420552  0.423032  0.374295  1
  H  H3  1  0.759996  0.303816  0.593956  1
  H  H4  1  0.096192  0.421874  0.376064  1
  H  H5  1  0.749164  0.284288  0.861681  1
  H  H6  1  0.757459  0.300946  0.063572  1
  H  H7  1  0.403808  0.578126  0.876064  1
  H  H8  1  0.740004  0.696184  0.093956  1
  H  H9  1  0.079448  0.576968  0.874295  1
  H  H10  1  0.242541  0.800946  0.436428  1
  H  H11  1  0.250836  0.784288  0.638319  1
  H  H12  1  0.920552  0.076968  0.625705  1
  H  H13  1  0.259996  0.196184  0.406044  1
  H  H14  1  0.596192  0.078126  0.623936  1
  H  H15  1  0.249164  0.215712  0.138319  1
  H  H16  1  0.257459  0.199054  0.936428  1
  H  H17  1  0.579448  0.923032  0.125705  1
  H  H18  1  0.903808  0.921874  0.123936  1
  H  H19  1  0.240004  0.803816  0.906044  1
  N  N20  1  0.741736  0.836370  0.163756  1
  N  N21  1  0.758264  0.163630  0.663756  1
  N  N22  1  0.241736  0.663630  0.836244  1
  N  N23  1  0.258264  0.336370  0.336244  1
  O  O24  1  0.762099  0.610067  0.461574  1
  O  O25  1  0.737901  0.389933  0.961574  1
  O  O26  1  0.262099  0.889933  0.538426  1
  O  O27  1  0.237901  0.110067  0.038426  1
