# generated using pymatgen
data_LiH2IO
_symmetry_space_group_name_H-M   'P 1'
_cell_length_a   4.39002200
_cell_length_b   5.67330700
_cell_length_c   6.34950663
_cell_angle_alpha   89.81351674
_cell_angle_beta   90.00000000
_cell_angle_gamma   90.00000000
_symmetry_Int_Tables_number   1
_chemical_formula_structural   LiH2IO
_chemical_formula_sum   'Li2 H4 I2 O2'
_cell_volume   158.13960971
_cell_formula_units_Z   2
loop_
 _symmetry_equiv_pos_site_id
 _symmetry_equiv_pos_as_xyz
  1  'x, y, z'
loop_
 _atom_site_type_symbol
 _atom_site_label
 _atom_site_symmetry_multiplicity
 _atom_site_fract_x
 _atom_site_fract_y
 _atom_site_fract_z
 _atom_site_occupancy
  Li  Li0  1  0.500000  0.748874  0.749544  1
  Li  Li1  1  0.500000  0.746735  0.248113  1
  H  H2  1  0.676371  0.391251  0.999820  1
  H  H3  1  0.323629  0.391251  0.999820  1
  H  H4  1  0.676905  0.099828  0.489470  1
  H  H5  1  0.323095  0.099828  0.489470  1
  I  I6  1  0.000000  0.999594  0.998793  1
  I  I7  1  0.000000  0.498066  0.499932  1
  O  O8  1  0.500000  0.500271  0.999948  1
  O  O9  1  0.500000  0.991302  0.492091  1
