# generated using pymatgen
data_KLiSO4
_symmetry_space_group_name_H-M   'P 1'
_cell_length_a   5.22727584
_cell_length_b   5.22727584
_cell_length_c   8.80271399
_cell_angle_alpha   89.83648213
_cell_angle_beta   89.83648213
_cell_angle_gamma   120.36435106
_symmetry_Int_Tables_number   1
_chemical_formula_structural   KLiSO4
_chemical_formula_sum   'K2 Li2 S2 O8'
_cell_volume   207.53181385
_cell_formula_units_Z   2
loop_
 _symmetry_equiv_pos_site_id
 _symmetry_equiv_pos_as_xyz
  1  'x, y, z'
loop_
 _atom_site_type_symbol
 _atom_site_label
 _atom_site_symmetry_multiplicity
 _atom_site_fract_x
 _atom_site_fract_y
 _atom_site_fract_z
 _atom_site_occupancy
  K  K0  1  0.038730  0.035903  0.506067  1
  K  K1  1  0.035903  0.038730  0.006067  1
  Li  Li2  1  0.365317  0.704786  0.691943  1
  Li  Li3  1  0.704786  0.365317  0.191943  1
  S  S4  1  0.699561  0.369086  0.802188  1
  S  S5  1  0.369086  0.699561  0.302188  1
  O  O6  1  0.977929  0.644366  0.756402  1
  O  O7  1  0.644366  0.977929  0.256402  1
  O  O8  1  0.436653  0.384119  0.749185  1
  O  O9  1  0.384119  0.436653  0.249185  1
  O  O10  1  0.342420  0.687710  0.471074  1
  O  O11  1  0.687710  0.342420  0.971074  1
  O  O12  1  0.104474  0.694945  0.236141  1
  O  O13  1  0.694945  0.104474  0.736141  1
