# generated using pymatgen
data_Li5SiP3
_symmetry_space_group_name_H-M   'P 1'
_cell_length_a   7.05521003
_cell_length_b   7.05521003
_cell_length_c   8.61638904
_cell_angle_alpha   72.40031517
_cell_angle_beta   72.40031517
_cell_angle_gamma   49.60777360
_symmetry_Int_Tables_number   1
_chemical_formula_structural   Li5SiP3
_chemical_formula_sum   'Li10 Si2 P6'
_cell_volume   307.99948154
_cell_formula_units_Z   2
loop_
 _symmetry_equiv_pos_site_id
 _symmetry_equiv_pos_as_xyz
  1  'x, y, z'
loop_
 _atom_site_type_symbol
 _atom_site_label
 _atom_site_symmetry_multiplicity
 _atom_site_fract_x
 _atom_site_fract_y
 _atom_site_fract_z
 _atom_site_occupancy
  Li  Li0  1  0.397375  0.914517  0.421046  1
  Li  Li1  1  0.785370  0.217468  0.272247  1
  Li  Li2  1  0.085487  0.565878  0.078321  1
  Li  Li3  1  0.441059  0.912072  0.908394  1
  Li  Li4  1  0.914517  0.397375  0.921046  1
  Li  Li5  1  0.084554  0.594906  0.582026  1
  Li  Li6  1  0.217468  0.785370  0.772247  1
  Li  Li7  1  0.565878  0.085487  0.578321  1
  Li  Li8  1  0.912072  0.441059  0.408394  1
  Li  Li9  1  0.594906  0.084554  0.082026  1
  Si  Si10  1  0.677548  0.323137  0.695638  1
  Si  Si11  1  0.323137  0.677548  0.195638  1
  P  P12  1  0.035673  0.964023  0.038540  1
  P  P13  1  0.671873  0.644030  0.672173  1
  P  P14  1  0.964023  0.035673  0.538540  1
  P  P15  1  0.332173  0.354701  0.325625  1
  P  P16  1  0.644030  0.671873  0.172173  1
  P  P17  1  0.354701  0.332173  0.825625  1
