# generated using pymatgen
data_CdGeO3
_symmetry_space_group_name_H-M   'P 1'
_cell_length_a   6.07045139
_cell_length_b   6.07045139
_cell_length_c   5.22793700
_cell_angle_alpha   90.00000000
_cell_angle_beta   90.00000000
_cell_angle_gamma   126.46686609
_symmetry_Int_Tables_number   1
_chemical_formula_structural   CdGeO3
_chemical_formula_sum   'Cd2 Ge2 O6'
_cell_volume   154.93044510
_cell_formula_units_Z   2
loop_
 _symmetry_equiv_pos_site_id
 _symmetry_equiv_pos_as_xyz
  1  'x, y, z'
loop_
 _atom_site_type_symbol
 _atom_site_label
 _atom_site_symmetry_multiplicity
 _atom_site_fract_x
 _atom_site_fract_y
 _atom_site_fract_z
 _atom_site_occupancy
  Cd  Cd0  1  0.115794  0.884206  0.242952  1
  Cd  Cd1  1  0.884206  0.115794  0.742952  1
  Ge  Ge2  1  0.441327  0.558673  0.313906  1
  Ge  Ge3  1  0.558673  0.441327  0.813906  1
  O  O4  1  0.260901  0.289931  0.050277  1
  O  O5  1  0.710069  0.739099  0.050277  1
  O  O6  1  0.289885  0.710115  0.411955  1
  O  O7  1  0.289931  0.260901  0.550277  1
  O  O8  1  0.739099  0.710069  0.550277  1
  O  O9  1  0.710115  0.289885  0.911955  1
