# generated using pymatgen
data_LuHO2
_symmetry_space_group_name_H-M   'P 1'
_cell_length_a   3.56661100
_cell_length_b   4.24658000
_cell_length_c   5.82034056
_cell_angle_alpha   70.43623884
_cell_angle_beta   90.00000000
_cell_angle_gamma   90.00000000
_symmetry_Int_Tables_number   1
_chemical_formula_structural   LuHO2
_chemical_formula_sum   'Lu2 H2 O4'
_cell_volume   83.06509279
_cell_formula_units_Z   2
loop_
 _symmetry_equiv_pos_site_id
 _symmetry_equiv_pos_as_xyz
  1  'x, y, z'
loop_
 _atom_site_type_symbol
 _atom_site_label
 _atom_site_symmetry_multiplicity
 _atom_site_fract_x
 _atom_site_fract_y
 _atom_site_fract_z
 _atom_site_occupancy
  Lu  Lu0  1  0.766974  0.666371  0.187443  1
  Lu  Lu1  1  0.266974  0.333629  0.812557  1
  H  H2  1  0.827321  0.019601  0.591915  1
  H  H3  1  0.327321  0.980399  0.408085  1
  O  O4  1  0.767974  0.231522  0.055472  1
  O  O5  1  0.267974  0.768478  0.944528  1
  O  O6  1  0.762893  0.252829  0.564771  1
  O  O7  1  0.262893  0.747171  0.435229  1
