# generated using pymatgen
data_P(HO)3
_symmetry_space_group_name_H-M   'P 1'
_cell_length_a   6.98050300
_cell_length_b   7.48384600
_cell_length_c   12.80722200
_cell_angle_alpha   90.00000000
_cell_angle_beta   90.00000000
_cell_angle_gamma   90.00000000
_symmetry_Int_Tables_number   1
_chemical_formula_structural   P(HO)3
_chemical_formula_sum   'P8 H24 O24'
_cell_volume   669.06220559
_cell_formula_units_Z   8
loop_
 _symmetry_equiv_pos_site_id
 _symmetry_equiv_pos_as_xyz
  1  'x, y, z'
loop_
 _atom_site_type_symbol
 _atom_site_label
 _atom_site_symmetry_multiplicity
 _atom_site_fract_x
 _atom_site_fract_y
 _atom_site_fract_z
 _atom_site_occupancy
  P  P0  1  0.032597  0.514684  0.367938  1
  P  P1  1  0.532597  0.485316  0.632062  1
  P  P2  1  0.532597  0.985316  0.867938  1
  P  P3  1  0.032597  0.014684  0.132062  1
  P  P4  1  0.463798  0.577806  0.117165  1
  P  P5  1  0.963798  0.422194  0.882835  1
  P  P6  1  0.963798  0.922194  0.617165  1
  P  P7  1  0.463798  0.077806  0.382835  1
  H  H8  1  0.933982  0.784702  0.312776  1
  H  H9  1  0.433982  0.215298  0.687224  1
  H  H10  1  0.433982  0.715298  0.812776  1
  H  H11  1  0.933982  0.284702  0.187224  1
  H  H12  1  0.744114  0.448561  0.291023  1
  H  H13  1  0.244114  0.551439  0.708977  1
  H  H14  1  0.244114  0.051439  0.791023  1
  H  H15  1  0.744114  0.948561  0.208977  1
  H  H16  1  0.921772  0.548646  0.528677  1
  H  H17  1  0.421772  0.451354  0.471323  1
  H  H18  1  0.421772  0.951354  0.028677  1
  H  H19  1  0.921772  0.048646  0.971323  1
  H  H20  1  0.394998  0.496718  0.279696  1
  H  H21  1  0.894998  0.503282  0.720304  1
  H  H22  1  0.894998  0.003282  0.779696  1
  H  H23  1  0.394998  0.996718  0.220304  1
  H  H24  1  0.161441  0.573890  0.061983  1
  H  H25  1  0.661441  0.426110  0.938017  1
  H  H26  1  0.661441  0.926110  0.561983  1
  H  H27  1  0.161441  0.073890  0.438017  1
  H  H28  1  0.475446  0.286360  0.049688  1
  H  H29  1  0.975446  0.713640  0.950312  1
  H  H30  1  0.975446  0.213640  0.549688  1
  H  H31  1  0.475446  0.786360  0.450312  1
  O  O32  1  0.938431  0.711131  0.378338  1
  O  O33  1  0.438431  0.288869  0.621662  1
  O  O34  1  0.438431  0.788869  0.878338  1
  O  O35  1  0.938431  0.211131  0.121662  1
  O  O36  1  0.879789  0.405419  0.294447  1
  O  O37  1  0.379789  0.594581  0.705553  1
  O  O38  1  0.379789  0.094581  0.794447  1
  O  O39  1  0.879789  0.905419  0.205553  1
  O  O40  1  0.972709  0.448871  0.488077  1
  O  O41  1  0.472709  0.551129  0.511923  1
  O  O42  1  0.472709  0.051129  0.988077  1
  O  O43  1  0.972709  0.948871  0.011923  1
  O  O44  1  0.512953  0.503458  0.237396  1
  O  O45  1  0.012953  0.496542  0.762604  1
  O  O46  1  0.012953  0.996542  0.737396  1
  O  O47  1  0.512953  0.003458  0.262604  1
  O  O48  1  0.233832  0.552556  0.128679  1
  O  O49  1  0.733832  0.447444  0.871321  1
  O  O50  1  0.733832  0.947444  0.628679  1
  O  O51  1  0.233832  0.052556  0.371321  1
  O  O52  1  0.530256  0.408032  0.043845  1
  O  O53  1  0.030256  0.591968  0.956155  1
  O  O54  1  0.030256  0.091968  0.543845  1
  O  O55  1  0.530256  0.908032  0.456155  1
