# generated using pymatgen
data_LiSb(PO3)4
_symmetry_space_group_name_H-M   'P 1'
_cell_length_a   8.60659800
_cell_length_b   7.07222000
_cell_length_c   7.85561909
_cell_angle_alpha   88.90785515
_cell_angle_beta   90.00000000
_cell_angle_gamma   90.00000000
_symmetry_Int_Tables_number   1
_chemical_formula_structural   LiSb(PO3)4
_chemical_formula_sum   'Li2 Sb2 P8 O24'
_cell_volume   478.06703051
_cell_formula_units_Z   2
loop_
 _symmetry_equiv_pos_site_id
 _symmetry_equiv_pos_as_xyz
  1  'x, y, z'
loop_
 _atom_site_type_symbol
 _atom_site_label
 _atom_site_symmetry_multiplicity
 _atom_site_fract_x
 _atom_site_fract_y
 _atom_site_fract_z
 _atom_site_occupancy
  Li  Li0  1  0.404369  0.713495  0.652066  1
  Li  Li1  1  0.904369  0.286505  0.347934  1
  Sb  Sb2  1  0.227866  0.241476  0.770643  1
  Sb  Sb3  1  0.727866  0.758524  0.229357  1
  P  P4  1  0.874010  0.433800  0.905565  1
  P  P5  1  0.008583  0.607443  0.593070  1
  P  P6  1  0.397660  0.991207  0.396370  1
  P  P7  1  0.897660  0.008793  0.603630  1
  P  P8  1  0.374010  0.566200  0.094435  1
  P  P9  1  0.172892  0.912686  0.107485  1
  P  P10  1  0.672892  0.087314  0.892515  1
  P  P11  1  0.508583  0.392557  0.406930  1
  O  O12  1  0.008474  0.829907  0.623288  1
  O  O13  1  0.699597  0.020699  0.075052  1
  O  O14  1  0.519354  0.062054  0.810338  1
  O  O15  1  0.665192  0.455069  0.339736  1
  O  O16  1  0.019354  0.937946  0.189662  1
  O  O17  1  0.346720  0.423423  0.958684  1
  O  O18  1  0.846720  0.576577  0.041316  1
  O  O19  1  0.165192  0.544931  0.660264  1
  O  O20  1  0.719687  0.309669  0.886248  1
  O  O21  1  0.371983  0.461724  0.277426  1
  O  O22  1  0.517775  0.686351  0.068623  1
  O  O23  1  0.199597  0.979301  0.924948  1
  O  O24  1  0.460338  0.439870  0.583664  1
  O  O25  1  0.500590  0.817480  0.402657  1
  O  O26  1  0.219687  0.690331  0.113752  1
  O  O27  1  0.871983  0.538276  0.722574  1
  O  O28  1  0.290730  0.999986  0.546330  1
  O  O29  1  0.790730  0.000014  0.453670  1
  O  O30  1  0.809678  0.989053  0.783403  1
  O  O31  1  0.309678  0.010947  0.216597  1
  O  O32  1  0.017775  0.313649  0.931377  1
  O  O33  1  0.508474  0.170093  0.376712  1
  O  O34  1  0.000590  0.182520  0.597343  1
  O  O35  1  0.960338  0.560130  0.416336  1
