# generated using pymatgen
data_H4N2O3
_symmetry_space_group_name_H-M   'P 1'
_cell_length_a   6.46005800
_cell_length_b   6.69280300
_cell_length_c   7.42330300
_cell_angle_alpha   90.00000000
_cell_angle_beta   90.00000000
_cell_angle_gamma   90.00000000
_symmetry_Int_Tables_number   1
_chemical_formula_structural   H4N2O3
_chemical_formula_sum   'H16 N8 O12'
_cell_volume   320.95315324
_cell_formula_units_Z   4
loop_
 _symmetry_equiv_pos_site_id
 _symmetry_equiv_pos_as_xyz
  1  'x, y, z'
loop_
 _atom_site_type_symbol
 _atom_site_label
 _atom_site_symmetry_multiplicity
 _atom_site_fract_x
 _atom_site_fract_y
 _atom_site_fract_z
 _atom_site_occupancy
  H  H0  1  0.919438  0.664301  0.495574  1
  H  H1  1  0.919438  0.835699  0.995574  1
  H  H2  1  0.419438  0.335699  0.504426  1
  H  H3  1  0.419438  0.164301  0.004426  1
  H  H4  1  0.013034  0.611777  0.793972  1
  H  H5  1  0.431274  0.862809  0.349026  1
  H  H6  1  0.664950  0.816250  0.016757  1
  H  H7  1  0.513034  0.388223  0.206028  1
  H  H8  1  0.931274  0.137191  0.650974  1
  H  H9  1  0.164950  0.183750  0.983243  1
  H  H10  1  0.931274  0.362809  0.150974  1
  H  H11  1  0.164950  0.316250  0.483243  1
  H  H12  1  0.513034  0.111777  0.706028  1
  H  H13  1  0.664950  0.683750  0.516757  1
  H  H14  1  0.431274  0.637191  0.849026  1
  H  H15  1  0.013034  0.888223  0.293972  1
  N  N16  1  0.283811  0.180979  0.075739  1
  N  N17  1  0.283811  0.319021  0.575739  1
  N  N18  1  0.783811  0.819021  0.924261  1
  N  N19  1  0.783811  0.680979  0.424261  1
  N  N20  1  0.258457  0.512234  0.665645  1
  N  N21  1  0.258457  0.987766  0.165645  1
  N  N22  1  0.758457  0.487766  0.334355  1
  N  N23  1  0.758457  0.012234  0.834355  1
  O  O24  1  0.248193  0.669882  0.573463  1
  O  O25  1  0.248193  0.830118  0.073463  1
  O  O26  1  0.748193  0.330118  0.426537  1
  O  O27  1  0.748193  0.169882  0.926537  1
  O  O28  1  0.069238  0.475448  0.775603  1
  O  O29  1  0.436185  0.996162  0.292152  1
  O  O30  1  0.569238  0.524552  0.224397  1
  O  O31  1  0.936185  0.003838  0.707848  1
  O  O32  1  0.936185  0.496162  0.207848  1
  O  O33  1  0.569238  0.975448  0.724397  1
  O  O34  1  0.436185  0.503838  0.792152  1
  O  O35  1  0.069238  0.024552  0.275603  1
