# generated using pymatgen
data_Li4WO5
_symmetry_space_group_name_H-M   'P 1'
_cell_length_a   5.20546949
_cell_length_b   5.20546949
_cell_length_c   5.20546949
_cell_angle_alpha   98.72260439
_cell_angle_beta   98.72260439
_cell_angle_gamma   134.16271430
_symmetry_Int_Tables_number   1
_chemical_formula_structural   Li4WO5
_chemical_formula_sum   'Li4 W1 O5'
_cell_volume   93.19802499
_cell_formula_units_Z   1
loop_
 _symmetry_equiv_pos_site_id
 _symmetry_equiv_pos_as_xyz
  1  'x, y, z'
loop_
 _atom_site_type_symbol
 _atom_site_label
 _atom_site_symmetry_multiplicity
 _atom_site_fract_x
 _atom_site_fract_y
 _atom_site_fract_z
 _atom_site_occupancy
  Li  Li0  1  0.816284  0.395252  0.210324  1
  Li  Li1  1  0.605960  0.816284  0.421032  1
  Li  Li2  1  0.395252  0.184928  0.578968  1
  Li  Li3  1  0.184928  0.605960  0.789676  1
  W  W4  1  0.986457  0.986457  0.000000  1
  O  O5  1  0.274589  0.918212  0.186654  1
  O  O6  1  0.087934  0.274589  0.356377  1
  O  O7  1  0.918212  0.731557  0.643623  1
  O  O8  1  0.731557  0.087934  0.813346  1
  O  O9  1  0.501409  0.501409  0.000000  1
