# generated using pymatgen
data_K2HS2NO6
_symmetry_space_group_name_H-M   'P 1'
_cell_length_a   7.28558300
_cell_length_b   7.38778000
_cell_length_c   7.91878914
_cell_angle_alpha   85.53776885
_cell_angle_beta   90.00000000
_cell_angle_gamma   90.00000000
_symmetry_Int_Tables_number   1
_chemical_formula_structural   K2HS2NO6
_chemical_formula_sum   'K4 H2 S4 N2 O12'
_cell_volume   424.93120675
_cell_formula_units_Z   2
loop_
 _symmetry_equiv_pos_site_id
 _symmetry_equiv_pos_as_xyz
  1  'x, y, z'
loop_
 _atom_site_type_symbol
 _atom_site_label
 _atom_site_symmetry_multiplicity
 _atom_site_fract_x
 _atom_site_fract_y
 _atom_site_fract_z
 _atom_site_occupancy
  K  K0  1  0.338464  0.115019  0.723957  1
  K  K1  1  0.331274  0.374147  0.271868  1
  K  K2  1  0.661536  0.615019  0.723957  1
  K  K3  1  0.668726  0.874147  0.271868  1
  H  H4  1  0.024265  0.337108  0.543458  1
  H  H5  1  0.975735  0.837108  0.543458  1
  S  S6  1  0.820003  0.134115  0.663258  1
  S  S7  1  0.812655  0.369044  0.332889  1
  S  S8  1  0.179997  0.634115  0.663258  1
  S  S9  1  0.187345  0.869044  0.332889  1
  N  N10  1  0.924750  0.253380  0.498172  1
  N  N11  1  0.075250  0.753380  0.498172  1
  O  O12  1  0.299591  0.013901  0.400151  1
  O  O13  1  0.974946  0.073026  0.769228  1
  O  O14  1  0.695957  0.233669  0.260632  1
  O  O15  1  0.688902  0.251401  0.743748  1
  O  O16  1  0.965386  0.438129  0.227942  1
  O  O17  1  0.275694  0.483062  0.587697  1
  O  O18  1  0.700409  0.513901  0.400151  1
  O  O19  1  0.025054  0.573026  0.769228  1
  O  O20  1  0.304043  0.733669  0.260632  1
  O  O21  1  0.311098  0.751401  0.743748  1
  O  O22  1  0.034614  0.938129  0.227942  1
  O  O23  1  0.724306  0.983062  0.587697  1
