# generated using pymatgen
data_C5N4
_symmetry_space_group_name_H-M   'P 1'
_cell_length_a   6.53424518
_cell_length_b   6.53424518
_cell_length_c   6.53424536
_cell_angle_alpha   88.19594471
_cell_angle_beta   88.19594471
_cell_angle_gamma   88.19595025
_symmetry_Int_Tables_number   1
_chemical_formula_structural   C5N4
_chemical_formula_sum   'C10 N8'
_cell_volume   278.58215027
_cell_formula_units_Z   2
loop_
 _symmetry_equiv_pos_site_id
 _symmetry_equiv_pos_as_xyz
  1  'x, y, z'
loop_
 _atom_site_type_symbol
 _atom_site_label
 _atom_site_symmetry_multiplicity
 _atom_site_fract_x
 _atom_site_fract_y
 _atom_site_fract_z
 _atom_site_occupancy
  C  C0  1  0.622375  0.433281  0.317884  1
  C  C1  1  0.817884  0.933281  0.122375  1
  C  C2  1  0.122375  0.817884  0.933281  1
  C  C3  1  0.933281  0.122375  0.817884  1
  C  C4  1  0.317884  0.622375  0.433281  1
  C  C5  1  0.626688  0.626688  0.626688  1
  C  C6  1  0.999838  0.999838  0.999838  1
  C  C7  1  0.433281  0.317884  0.622375  1
  C  C8  1  0.499838  0.499838  0.499838  1
  C  C9  1  0.126688  0.126688  0.126688  1
  N  N10  1  0.720232  0.380864  0.176209  1
  N  N11  1  0.220232  0.676209  0.880864  1
  N  N12  1  0.676209  0.880864  0.220232  1
  N  N13  1  0.380864  0.176209  0.720232  1
  N  N14  1  0.226229  0.226229  0.226229  1
  N  N15  1  0.880864  0.220232  0.676209  1
  N  N16  1  0.726229  0.726229  0.726229  1
  N  N17  1  0.176209  0.720232  0.380864  1
