# generated using pymatgen
data_NaH9O5
_symmetry_space_group_name_H-M   'P 1'
_cell_length_a   4.42031500
_cell_length_b   7.59705540
_cell_length_c   9.26024907
_cell_angle_alpha   69.09852779
_cell_angle_beta   79.47656750
_cell_angle_gamma   79.81459439
_symmetry_Int_Tables_number   1
_chemical_formula_structural   NaH9O5
_chemical_formula_sum   'Na2 H18 O10'
_cell_volume   283.50313673
_cell_formula_units_Z   2
loop_
 _symmetry_equiv_pos_site_id
 _symmetry_equiv_pos_as_xyz
  1  'x, y, z'
loop_
 _atom_site_type_symbol
 _atom_site_label
 _atom_site_symmetry_multiplicity
 _atom_site_fract_x
 _atom_site_fract_y
 _atom_site_fract_z
 _atom_site_occupancy
  Na  Na0  1  0.612255  0.773128  0.105996  1
  Na  Na1  1  0.425635  0.242561  0.866796  1
  H  H2  1  0.135858  0.080174  0.212476  1
  H  H3  1  0.608404  0.157768  0.364490  1
  H  H4  1  0.393449  0.845009  0.633520  1
  H  H5  1  0.859145  0.923323  0.780183  1
  H  H6  1  0.543270  0.492661  0.018524  1
  H  H7  1  0.726592  0.351303  0.164709  1
  H  H8  1  0.265106  0.647023  0.834504  1
  H  H9  1  0.059256  0.501835  0.980034  1
  H  H10  1  0.503101  0.080488  0.203732  1
  H  H11  1  0.491063  0.914991  0.794384  1
  H  H12  1  0.092356  0.775138  0.265528  1
  H  H13  1  0.031759  0.551315  0.323923  1
  H  H14  1  0.941575  0.220722  0.779997  1
  H  H15  1  0.963533  0.450676  0.681486  1
  H  H16  1  0.086239  0.287289  0.505461  1
  H  H17  1  0.996883  0.255140  0.355387  1
  H  H18  1  0.008534  0.745474  0.641362  1
  H  H19  1  0.896302  0.707451  0.497487  1
  O  O20  1  0.768618  0.152384  0.276988  1
  O  O21  1  0.232233  0.847334  0.721079  1
  O  O22  1  0.715110  0.485969  0.079532  1
  O  O23  1  0.272853  0.511516  0.917807  1
  O  O24  1  0.342325  0.041895  0.158024  1
  O  O25  1  0.653710  0.956137  0.837869  1
  O  O26  1  0.934892  0.690421  0.296433  1
  O  O27  1  0.061993  0.312907  0.699369  1
  O  O28  1  0.128247  0.323527  0.390495  1
  O  O29  1  0.870924  0.674442  0.612423  1
