# generated using pymatgen
data_LiH3(SeO3)2
_symmetry_space_group_name_H-M   'P 1'
_cell_length_a   8.01307600
_cell_length_b   5.56004800
_cell_length_c   7.20538197
_cell_angle_alpha   57.53663973
_cell_angle_beta   90.00000000
_cell_angle_gamma   90.00000000
_symmetry_Int_Tables_number   1
_chemical_formula_structural   LiH3(SeO3)2
_chemical_formula_sum   'Li2 H6 Se4 O12'
_cell_volume   270.85746395
_cell_formula_units_Z   2
loop_
 _symmetry_equiv_pos_site_id
 _symmetry_equiv_pos_as_xyz
  1  'x, y, z'
loop_
 _atom_site_type_symbol
 _atom_site_label
 _atom_site_symmetry_multiplicity
 _atom_site_fract_x
 _atom_site_fract_y
 _atom_site_fract_z
 _atom_site_occupancy
  Li  Li0  1  0.247189  0.474878  0.003051  1
  Li  Li1  1  0.752811  0.474878  0.503051  1
  H  H2  1  0.144945  0.574482  0.325279  1
  H  H3  1  0.855055  0.574482  0.825279  1
  H  H4  1  0.382994  0.457258  0.616379  1
  H  H5  1  0.617006  0.457258  0.116379  1
  H  H6  1  0.230265  0.974589  0.552487  1
  H  H7  1  0.769735  0.974589  0.052487  1
  Se  Se8  1  0.393091  0.854511  0.233943  1
  Se  Se9  1  0.606909  0.854511  0.733943  1
  Se  Se10  1  0.103307  0.147018  0.766967  1
  Se  Se11  1  0.896693  0.147018  0.266967  1
  O  O12  1  0.225343  0.673336  0.191440  1
  O  O13  1  0.774657  0.673336  0.691440  1
  O  O14  1  0.277006  0.303879  0.798653  1
  O  O15  1  0.722994  0.303879  0.298653  1
  O  O16  1  0.291340  0.061139  0.301948  1
  O  O17  1  0.708660  0.061139  0.801948  1
  O  O18  1  0.203764  0.895799  0.712243  1
  O  O19  1  0.796236  0.895799  0.212243  1
  O  O20  1  0.474495  0.569226  0.486501  1
  O  O21  1  0.525505  0.569226  0.986501  1
  O  O22  1  0.023995  0.399645  0.516920  1
  O  O23  1  0.976005  0.399645  0.016920  1
