# generated using pymatgen
data_AgBiS2
_symmetry_space_group_name_H-M   'P 1'
_cell_length_a   5.62115031
_cell_length_b   5.62115031
_cell_length_c   7.01200625
_cell_angle_alpha   66.34452692
_cell_angle_beta   66.34452692
_cell_angle_gamma   89.90033519
_symmetry_Int_Tables_number   1
_chemical_formula_structural   AgBiS2
_chemical_formula_sum   'Ag2 Bi2 S4'
_cell_volume   182.51225778
_cell_formula_units_Z   2
loop_
 _symmetry_equiv_pos_site_id
 _symmetry_equiv_pos_as_xyz
  1  'x, y, z'
loop_
 _atom_site_type_symbol
 _atom_site_label
 _atom_site_symmetry_multiplicity
 _atom_site_fract_x
 _atom_site_fract_y
 _atom_site_fract_z
 _atom_site_occupancy
  Ag  Ag0  1  0.758201  0.499544  0.497267  1
  Ag  Ag1  1  0.499544  0.758201  0.997267  1
  Bi  Bi2  1  0.002212  0.255325  0.997377  1
  Bi  Bi3  1  0.255325  0.002212  0.497377  1
  S  S4  1  0.999818  0.746199  0.992604  1
  S  S5  1  0.482431  0.244503  0.008957  1
  S  S6  1  0.746199  0.999818  0.492604  1
  S  S7  1  0.244503  0.482431  0.508957  1
