# generated using pymatgen
data_H9BrO4
_symmetry_space_group_name_H-M   'P 1'
_cell_length_a   11.80375800
_cell_length_b   7.09512600
_cell_length_c   7.12632178
_cell_angle_alpha   70.70663527
_cell_angle_beta   90.00000000
_cell_angle_gamma   90.00000000
_symmetry_Int_Tables_number   1
_chemical_formula_structural   H9BrO4
_chemical_formula_sum   'H36 Br4 O16'
_cell_volume   563.30532722
_cell_formula_units_Z   4
loop_
 _symmetry_equiv_pos_site_id
 _symmetry_equiv_pos_as_xyz
  1  'x, y, z'
loop_
 _atom_site_type_symbol
 _atom_site_label
 _atom_site_symmetry_multiplicity
 _atom_site_fract_x
 _atom_site_fract_y
 _atom_site_fract_z
 _atom_site_occupancy
  H  H0  1  0.333669  0.003172  0.330008  1
  H  H1  1  0.263530  0.984673  0.148423  1
  H  H2  1  0.763530  0.015327  0.851577  1
  H  H3  1  0.833669  0.996828  0.669992  1
  H  H4  1  0.190901  0.829651  0.976965  1
  H  H5  1  0.264361  0.004796  0.842199  1
  H  H6  1  0.690901  0.170349  0.023035  1
  H  H7  1  0.764361  0.995204  0.157801  1
  H  H8  1  0.171081  0.185599  0.548156  1
  H  H9  1  0.304148  0.176988  0.534485  1
  H  H10  1  0.804148  0.823012  0.465515  1
  H  H11  1  0.671081  0.814401  0.451844  1
  H  H12  1  0.246592  0.513796  0.844625  1
  H  H13  1  0.251179  0.415739  0.669128  1
  H  H14  1  0.159303  0.622379  0.617781  1
  H  H15  1  0.751179  0.584261  0.330872  1
  H  H16  1  0.746592  0.486204  0.155375  1
  H  H17  1  0.659303  0.377621  0.382219  1
  H  H18  1  0.159765  0.476934  0.120593  1
  H  H19  1  0.241133  0.280213  0.157489  1
  H  H20  1  0.741133  0.719787  0.842511  1
  H  H21  1  0.659765  0.523066  0.879407  1
  H  H22  1  0.369293  0.625602  0.367216  1
  H  H23  1  0.335174  0.520980  0.203705  1
  H  H24  1  0.869293  0.374398  0.632784  1
  H  H25  1  0.835174  0.479020  0.796295  1
  H  H26  1  0.555859  0.170934  0.505884  1
  H  H27  1  0.504102  0.390327  0.399154  1
  H  H28  1  0.055859  0.829066  0.494116  1
  H  H29  1  0.004102  0.609673  0.600846  1
  H  H30  1  0.506321  0.824442  0.873419  1
  H  H31  1  0.516711  0.967966  0.014052  1
  H  H32  1  0.468633  0.723460  0.116623  1
  H  H33  1  0.006321  0.175558  0.126581  1
  H  H34  1  0.016711  0.032034  0.985948  1
  H  H35  1  0.968633  0.276540  0.883377  1
  Br  Br36  1  0.507895  0.268526  0.984604  1
  Br  Br37  1  0.007895  0.731474  0.015396  1
  Br  Br38  1  0.489158  0.862084  0.560057  1
  Br  Br39  1  0.989158  0.137916  0.439943  1
  O  O40  1  0.260241  0.040334  0.262534  1
  O  O41  1  0.760241  0.959666  0.737466  1
  O  O42  1  0.267284  0.891340  0.967811  1
  O  O43  1  0.767284  0.108660  0.032189  1
  O  O44  1  0.242717  0.207355  0.612015  1
  O  O45  1  0.742717  0.792645  0.387985  1
  O  O46  1  0.244573  0.546256  0.695271  1
  O  O47  1  0.744573  0.453744  0.304729  1
  O  O48  1  0.236231  0.432072  0.097695  1
  O  O49  1  0.736231  0.567928  0.902305  1
  O  O50  1  0.400973  0.565220  0.272573  1
  O  O51  1  0.900973  0.434780  0.727427  1
  O  O52  1  0.570723  0.316514  0.474892  1
  O  O53  1  0.070723  0.683486  0.525108  1
  O  O54  1  0.524090  0.821697  0.014175  1
  O  O55  1  0.024090  0.178303  0.985825  1
