# generated using pymatgen
data_NaBiS2
_symmetry_space_group_name_H-M   'P 1'
_cell_length_a   7.17472333
_cell_length_b   7.16621106
_cell_length_c   5.76731475
_cell_angle_alpha   66.36432333
_cell_angle_beta   66.20947155
_cell_angle_gamma   47.42620512
_symmetry_Int_Tables_number   1
_chemical_formula_structural   NaBiS2
_chemical_formula_sum   'Na2 Bi2 S4'
_cell_volume   196.17255657
_cell_formula_units_Z   2
loop_
 _symmetry_equiv_pos_site_id
 _symmetry_equiv_pos_as_xyz
  1  'x, y, z'
loop_
 _atom_site_type_symbol
 _atom_site_label
 _atom_site_symmetry_multiplicity
 _atom_site_fract_x
 _atom_site_fract_y
 _atom_site_fract_z
 _atom_site_occupancy
  Na  Na0  1  0.000216  0.999784  0.000216  1
  Na  Na1  1  0.250216  0.249784  0.250216  1
  Bi  Bi2  1  0.734180  0.765820  0.734180  1
  Bi  Bi3  1  0.484180  0.515820  0.484180  1
  S  S4  1  0.011668  0.969370  0.511007  1
  S  S5  1  0.511007  0.507955  0.011668  1
  S  S6  1  0.742045  0.738993  0.280630  1
  S  S7  1  0.280630  0.238332  0.742045  1
