# generated using pymatgen
data_NaH3SO5
_symmetry_space_group_name_H-M   'P 1'
_cell_length_a   5.61112818
_cell_length_b   5.61112818
_cell_length_c   8.02822505
_cell_angle_alpha   71.06144836
_cell_angle_beta   71.06144836
_cell_angle_gamma   90.18707900
_symmetry_Int_Tables_number   1
_chemical_formula_structural   NaH3SO5
_chemical_formula_sum   'Na2 H6 S2 O10'
_cell_volume   224.46923868
_cell_formula_units_Z   2
loop_
 _symmetry_equiv_pos_site_id
 _symmetry_equiv_pos_as_xyz
  1  'x, y, z'
loop_
 _atom_site_type_symbol
 _atom_site_label
 _atom_site_symmetry_multiplicity
 _atom_site_fract_x
 _atom_site_fract_y
 _atom_site_fract_z
 _atom_site_occupancy
  Na  Na0  1  0.446235  0.519478  0.493236  1
  Na  Na1  1  0.519478  0.446235  0.993236  1
  H  H2  1  0.520328  0.125612  0.776304  1
  H  H3  1  0.125611  0.520328  0.276304  1
  H  H4  1  0.789274  0.282862  0.680874  1
  H  H5  1  0.282862  0.789274  0.180874  1
  H  H6  1  0.828428  0.909055  0.000795  1
  H  H7  1  0.909055  0.828428  0.500795  1
  S  S8  1  0.117026  0.883372  0.749271  1
  S  S9  1  0.883372  0.117026  0.249271  1
  O  O10  1  0.122531  0.156299  0.658104  1
  O  O11  1  0.156299  0.122531  0.158104  1
  O  O12  1  0.088984  0.733721  0.633895  1
  O  O13  1  0.733721  0.088984  0.133895  1
  O  O14  1  0.856971  0.790876  0.925199  1
  O  O15  1  0.790876  0.856971  0.425199  1
  O  O16  1  0.325616  0.817009  0.820823  1
  O  O17  1  0.817009  0.325616  0.320823  1
  O  O18  1  0.608500  0.298624  0.734498  1
  O  O19  1  0.298624  0.608500  0.234498  1
