# generated using pymatgen
data_MnCO3
_symmetry_space_group_name_H-M   'P 1'
_cell_length_a   4.94286777
_cell_length_b   4.94286777
_cell_length_c   5.62169204
_cell_angle_alpha   72.80355151
_cell_angle_beta   72.80355151
_cell_angle_gamma   60.26117942
_symmetry_Int_Tables_number   1
_chemical_formula_structural   MnCO3
_chemical_formula_sum   'Mn2 C2 O6'
_cell_volume   112.07515008
_cell_formula_units_Z   2
loop_
 _symmetry_equiv_pos_site_id
 _symmetry_equiv_pos_as_xyz
  1  'x, y, z'
loop_
 _atom_site_type_symbol
 _atom_site_label
 _atom_site_symmetry_multiplicity
 _atom_site_fract_x
 _atom_site_fract_y
 _atom_site_fract_z
 _atom_site_occupancy
  Mn  Mn0  1  0.077391  0.489547  0.993936  1
  Mn  Mn1  1  0.489547  0.077391  0.493936  1
  C  C2  1  0.784858  0.173707  0.874511  1
  C  C3  1  0.173707  0.784858  0.374511  1
  O  O4  1  0.957148  0.754730  0.311266  1
  O  O5  1  0.372918  0.552144  0.508896  1
  O  O6  1  0.185031  0.052525  0.308891  1
  O  O7  1  0.754730  0.957148  0.811266  1
  O  O8  1  0.552144  0.372918  0.008896  1
  O  O9  1  0.052525  0.185031  0.808891  1
