# generated using pymatgen
data_SrH4O3
_symmetry_space_group_name_H-M   'P 1'
_cell_length_a   3.93720200
_cell_length_b   5.68021932
_cell_length_c   7.57648232
_cell_angle_alpha   90.32010001
_cell_angle_beta   92.46811364
_cell_angle_gamma   93.91384347
_symmetry_Int_Tables_number   1
_chemical_formula_structural   SrH4O3
_chemical_formula_sum   'Sr2 H8 O6'
_cell_volume   168.88357935
_cell_formula_units_Z   2
loop_
 _symmetry_equiv_pos_site_id
 _symmetry_equiv_pos_as_xyz
  1  'x, y, z'
loop_
 _atom_site_type_symbol
 _atom_site_label
 _atom_site_symmetry_multiplicity
 _atom_site_fract_x
 _atom_site_fract_y
 _atom_site_fract_z
 _atom_site_occupancy
  Sr  Sr0  1  0.985289  0.363730  0.294062  1
  Sr  Sr1  1  0.994133  0.634970  0.775563  1
  H  H2  1  0.311363  0.962831  0.149320  1
  H  H3  1  0.777014  0.852039  0.137129  1
  H  H4  1  0.786379  0.098897  0.656089  1
  H  H5  1  0.200163  0.107394  0.656486  1
  H  H6  1  0.481598  0.401621  0.554176  1
  H  H7  1  0.491491  0.816266  0.575865  1
  H  H8  1  0.454246  0.271819  0.021148  1
  H  H9  1  0.603484  0.549802  0.023354  1
  O  O10  1  0.911663  0.721312  0.101309  1
  O  O11  1  0.001036  0.209584  0.631136  1
  O  O12  1  0.454941  0.108487  0.177354  1
  O  O13  1  0.492318  0.913910  0.685681  1
  O  O14  1  0.519426  0.532212  0.473390  1
  O  O15  1  0.466096  0.426455  0.943917  1
