# generated using pymatgen
data_NaLiZnP2O7
_symmetry_space_group_name_H-M   'P 1'
_cell_length_a   7.35148027
_cell_length_b   7.35148027
_cell_length_c   6.43472600
_cell_angle_alpha   90.00000000
_cell_angle_beta   90.00000000
_cell_angle_gamma   118.00782387
_symmetry_Int_Tables_number   1
_chemical_formula_structural   NaLiZnP2O7
_chemical_formula_sum   'Na2 Li2 Zn2 P4 O14'
_cell_volume   307.03157491
_cell_formula_units_Z   2
loop_
 _symmetry_equiv_pos_site_id
 _symmetry_equiv_pos_as_xyz
  1  'x, y, z'
loop_
 _atom_site_type_symbol
 _atom_site_label
 _atom_site_symmetry_multiplicity
 _atom_site_fract_x
 _atom_site_fract_y
 _atom_site_fract_z
 _atom_site_occupancy
  Na  Na0  1  0.241102  0.241102  0.500000  1
  Na  Na1  1  0.758898  0.758898  0.000000  1
  Li  Li2  1  0.785791  0.214209  0.750000  1
  Li  Li3  1  0.214209  0.785791  0.250000  1
  Zn  Zn4  1  0.216674  0.783326  0.750000  1
  Zn  Zn5  1  0.783326  0.216674  0.250000  1
  P  P6  1  0.806822  0.576568  0.496386  1
  P  P7  1  0.576568  0.806822  0.503614  1
  P  P8  1  0.423432  0.193178  0.003614  1
  P  P9  1  0.193178  0.423432  0.996386  1
  O  O10  1  0.917752  0.679192  0.700714  1
  O  O11  1  0.677869  0.919500  0.701461  1
  O  O12  1  0.587637  0.587637  0.500000  1
  O  O13  1  0.732860  0.341727  0.501698  1
  O  O14  1  0.341727  0.732860  0.498302  1
  O  O15  1  0.919500  0.677869  0.298539  1
  O  O16  1  0.679192  0.917752  0.299286  1
  O  O17  1  0.322131  0.080500  0.201461  1
  O  O18  1  0.082248  0.320808  0.200714  1
  O  O19  1  0.658273  0.267140  0.998302  1
  O  O20  1  0.412363  0.412363  0.000000  1
  O  O21  1  0.267140  0.658273  0.001698  1
  O  O22  1  0.320808  0.082248  0.799286  1
  O  O23  1  0.080500  0.322131  0.798539  1
