# generated using pymatgen
data_MnHO2
_symmetry_space_group_name_H-M   'P 1'
_cell_length_a   4.49882601
_cell_length_b   5.39347100
_cell_length_c   5.84536201
_cell_angle_alpha   89.99995915
_cell_angle_beta   89.99356283
_cell_angle_gamma   89.99995328
_symmetry_Int_Tables_number   1
_chemical_formula_structural   MnHO2
_chemical_formula_sum   'Mn4 H4 O8'
_cell_volume   141.83354404
_cell_formula_units_Z   4
loop_
 _symmetry_equiv_pos_site_id
 _symmetry_equiv_pos_as_xyz
  1  'x, y, z'
loop_
 _atom_site_type_symbol
 _atom_site_label
 _atom_site_symmetry_multiplicity
 _atom_site_fract_x
 _atom_site_fract_y
 _atom_site_fract_z
 _atom_site_occupancy
  Mn  Mn0  1  0.476506  0.513588  0.751520  1
  Mn  Mn1  1  0.023494  0.013591  0.498480  1
  Mn  Mn2  1  0.476751  0.513667  0.251270  1
  Mn  Mn3  1  0.023249  0.013666  0.998725  1
  H  H4  1  0.558800  0.024647  0.248882  1
  H  H5  1  0.558810  0.024643  0.748864  1
  H  H6  1  0.941200  0.524648  0.001119  1
  H  H7  1  0.941190  0.524643  0.501137  1
  O  O8  1  0.754757  0.127883  0.248966  1
  O  O9  1  0.754751  0.127887  0.748929  1
  O  O10  1  0.745242  0.627883  0.001034  1
  O  O11  1  0.745249  0.627887  0.501071  1
  O  O12  1  0.263555  0.887724  0.248519  1
  O  O13  1  0.263564  0.887720  0.748560  1
  O  O14  1  0.236445  0.387724  0.001481  1
  O  O15  1  0.236436  0.387720  0.501440  1
