# generated using pymatgen
data_Yb(YS2)2
_symmetry_space_group_name_H-M   'P 1'
_cell_length_a   7.23128933
_cell_length_b   7.23128933
_cell_length_c   7.23128933
_cell_angle_alpha   109.36028183
_cell_angle_beta   109.36028183
_cell_angle_gamma   109.69332681
_symmetry_Int_Tables_number   1
_chemical_formula_structural   Yb(YS2)2
_chemical_formula_sum   'Yb2 Y4 S8'
_cell_volume   291.08540318
_cell_formula_units_Z   2
loop_
 _symmetry_equiv_pos_site_id
 _symmetry_equiv_pos_as_xyz
  1  'x, y, z'
loop_
 _atom_site_type_symbol
 _atom_site_label
 _atom_site_symmetry_multiplicity
 _atom_site_fract_x
 _atom_site_fract_y
 _atom_site_fract_z
 _atom_site_occupancy
  Yb  Yb0  1  0.750000  0.250000  0.500000  1
  Yb  Yb1  1  0.500000  0.500000  0.000000  1
  Y  Y2  1  0.997579  0.375000  0.122579  1
  Y  Y3  1  0.625000  0.747579  0.622579  1
  Y  Y4  1  0.252421  0.875000  0.877421  1
  Y  Y5  1  0.125000  0.002421  0.377421  1
  S  S6  1  0.879932  0.629466  0.894718  1
  S  S7  1  0.370534  0.265251  0.250466  1
  S  S8  1  0.235215  0.484749  0.605282  1
  S  S9  1  0.370068  0.764785  0.249534  1
  S  S10  1  0.879466  0.629932  0.394718  1
  S  S11  1  0.515251  0.120534  0.750466  1
  S  S12  1  0.734749  0.985215  0.105282  1
  S  S13  1  0.014785  0.120068  0.749534  1
