# generated using pymatgen
data_Tl2SeO4
_symmetry_space_group_name_H-M   'P 1'
_cell_length_a   6.38916976
_cell_length_b   6.38916976
_cell_length_c   8.14733665
_cell_angle_alpha   89.78929303
_cell_angle_beta   89.78929303
_cell_angle_gamma   116.62199761
_symmetry_Int_Tables_number   1
_chemical_formula_structural   Tl2SeO4
_chemical_formula_sum   'Tl4 Se2 O8'
_cell_volume   297.31907702
_cell_formula_units_Z   2
loop_
 _symmetry_equiv_pos_site_id
 _symmetry_equiv_pos_as_xyz
  1  'x, y, z'
loop_
 _atom_site_type_symbol
 _atom_site_label
 _atom_site_symmetry_multiplicity
 _atom_site_fract_x
 _atom_site_fract_y
 _atom_site_fract_z
 _atom_site_occupancy
  Tl  Tl0  1  0.331582  0.663465  0.259170  1
  Tl  Tl1  1  0.000077  0.000079  0.003833  1
  Tl  Tl2  1  0.663465  0.331582  0.759170  1
  Tl  Tl3  1  0.000079  0.000077  0.503833  1
  Se  Se4  1  0.344514  0.656314  0.757321  1
  Se  Se5  1  0.656314  0.344514  0.257321  1
  O  O6  1  0.639809  0.763384  0.760438  1
  O  O7  1  0.251362  0.733956  0.927378  1
  O  O8  1  0.264271  0.757954  0.591778  1
  O  O9  1  0.232316  0.360929  0.747982  1
  O  O10  1  0.757954  0.264271  0.091778  1
  O  O11  1  0.763384  0.639809  0.260438  1
  O  O12  1  0.733956  0.251362  0.427378  1
  O  O13  1  0.360929  0.232316  0.247982  1
