# generated using pymatgen
data_FeHO2
_symmetry_space_group_name_H-M   'P 1'
_cell_length_a   4.99917363
_cell_length_b   6.46957429
_cell_length_c   5.02746239
_cell_angle_alpha   81.39200899
_cell_angle_beta   103.38694570
_cell_angle_gamma   81.47941196
_symmetry_Int_Tables_number   1
_chemical_formula_structural   FeHO2
_chemical_formula_sum   'Fe4 H4 O8'
_cell_volume   153.54993981
_cell_formula_units_Z   4
loop_
 _symmetry_equiv_pos_site_id
 _symmetry_equiv_pos_as_xyz
  1  'x, y, z'
loop_
 _atom_site_type_symbol
 _atom_site_label
 _atom_site_symmetry_multiplicity
 _atom_site_fract_x
 _atom_site_fract_y
 _atom_site_fract_z
 _atom_site_occupancy
  Fe  Fe0  1  0.786316  0.354511  0.536319  1
  Fe  Fe1  1  0.213608  0.645499  0.463565  1
  Fe  Fe2  1  0.286321  0.354515  0.036314  1
  Fe  Fe3  1  0.713609  0.645498  0.963572  1
  H  H4  1  0.710111  0.037875  0.271189  1
  H  H5  1  0.210108  0.037875  0.771187  1
  H  H6  1  0.479091  0.962170  0.540067  1
  H  H7  1  0.979092  0.962171  0.040067  1
  O  O8  1  0.480119  0.579478  0.230106  1
  O  O9  1  0.980120  0.579480  0.730108  1
  O  O10  1  0.519904  0.420499  0.769925  1
  O  O11  1  0.019903  0.420501  0.269925  1
  O  O12  1  0.587115  0.144061  0.340694  1
  O  O13  1  0.087116  0.144057  0.840693  1
  O  O14  1  0.409228  0.855908  0.662640  1
  O  O15  1  0.909230  0.855903  0.162637  1
