# generated using pymatgen
data_H8N2O
_symmetry_space_group_name_H-M   'P 1'
_cell_length_a   9.05584400
_cell_length_b   4.42880100
_cell_length_c   10.73228277
_cell_angle_alpha   69.28359116
_cell_angle_beta   90.00000000
_cell_angle_gamma   90.00000000
_symmetry_Int_Tables_number   1
_chemical_formula_structural   H8N2O
_chemical_formula_sum   'H32 N8 O4'
_cell_volume   402.60391648
_cell_formula_units_Z   4
loop_
 _symmetry_equiv_pos_site_id
 _symmetry_equiv_pos_as_xyz
  1  'x, y, z'
loop_
 _atom_site_type_symbol
 _atom_site_label
 _atom_site_symmetry_multiplicity
 _atom_site_fract_x
 _atom_site_fract_y
 _atom_site_fract_z
 _atom_site_occupancy
  H  H0  1  0.057771  0.037670  0.460220  1
  H  H1  1  0.169218  0.145694  0.259895  1
  H  H2  1  0.911835  0.091949  0.374852  1
  H  H3  1  0.865707  0.136526  0.609209  1
  H  H4  1  0.136626  0.806403  0.240727  1
  H  H5  1  0.802789  0.626570  0.370949  1
  H  H6  1  0.063554  0.489017  0.537006  1
  H  H7  1  0.910374  0.573289  0.173264  1
  H  H8  1  0.771242  0.556595  0.079042  1
  H  H9  1  0.614271  0.483927  0.973087  1
  H  H10  1  0.435796  0.398300  0.344955  1
  H  H11  1  0.379503  0.505523  0.138270  1
  H  H12  1  0.324780  0.838437  0.912901  1
  H  H13  1  0.707568  0.898729  0.254233  1
  H  H14  1  0.567182  0.111815  0.993028  1
  H  H15  1  0.348639  0.841346  0.153065  1
  H  H16  1  0.228758  0.556595  0.579042  1
  H  H17  1  0.385729  0.483927  0.473087  1
  H  H18  1  0.432818  0.111815  0.493028  1
  H  H19  1  0.651361  0.841346  0.653065  1
  H  H20  1  0.292432  0.898729  0.754233  1
  H  H21  1  0.620497  0.505523  0.638270  1
  H  H22  1  0.675220  0.838437  0.412901  1
  H  H23  1  0.564204  0.398300  0.844955  1
  H  H24  1  0.942229  0.037670  0.960220  1
  H  H25  1  0.134293  0.136526  0.109209  1
  H  H26  1  0.830782  0.145694  0.759895  1
  H  H27  1  0.863374  0.806403  0.740727  1
  H  H28  1  0.089626  0.573289  0.673264  1
  H  H29  1  0.936446  0.489017  0.037006  1
  H  H30  1  0.088165  0.091949  0.874852  1
  H  H31  1  0.197211  0.626570  0.870949  1
  N  N32  1  0.878004  0.633756  0.076016  1
  N  N33  1  0.376400  0.309280  0.431646  1
  N  N34  1  0.623600  0.309280  0.931646  1
  N  N35  1  0.121996  0.633756  0.576016  1
  N  N36  1  0.809595  0.022413  0.696589  1
  N  N37  1  0.242823  0.852441  0.844804  1
  N  N38  1  0.757177  0.852441  0.344804  1
  N  N39  1  0.190405  0.022413  0.196589  1
  O  O40  1  0.992472  0.213464  0.401168  1
  O  O41  1  0.423660  0.717374  0.119840  1
  O  O42  1  0.576340  0.717374  0.619840  1
  O  O43  1  0.007528  0.213464  0.901168  1
