# generated using pymatgen
data_YAgSe2
_symmetry_space_group_name_H-M   'P 1'
_cell_length_a   8.10138170
_cell_length_b   10.91057681
_cell_length_c   7.29901899
_cell_angle_alpha   28.84979828
_cell_angle_beta   55.98268784
_cell_angle_gamma   41.79738623
_symmetry_Int_Tables_number   1
_chemical_formula_structural   YAgSe2
_chemical_formula_sum   'Y2 Ag2 Se4'
_cell_volume   198.51263831
_cell_formula_units_Z   2
loop_
 _symmetry_equiv_pos_site_id
 _symmetry_equiv_pos_as_xyz
  1  'x, y, z'
loop_
 _atom_site_type_symbol
 _atom_site_label
 _atom_site_symmetry_multiplicity
 _atom_site_fract_x
 _atom_site_fract_y
 _atom_site_fract_z
 _atom_site_occupancy
  Y  Y0  1  0.995800  0.004538  0.996621  1
  Y  Y1  1  0.752412  0.494784  0.008178  1
  Ag  Ag2  1  0.499195  0.008859  0.986833  1
  Ag  Ag3  1  0.241583  0.502751  0.001751  1
  Se  Se4  1  0.238618  0.996342  0.529894  1
  Se  Se5  1  0.757997  0.002727  0.474143  1
  Se  Se6  1  0.508591  0.505952  0.471787  1
  Se  Se7  1  0.984343  0.502788  0.524837  1
