# generated using pymatgen
data_H2O
_symmetry_space_group_name_H-M   'P 1'
_cell_length_a   4.73896326
_cell_length_b   4.73896326
_cell_length_c   7.28519496
_cell_angle_alpha   85.52213915
_cell_angle_beta   85.52213915
_cell_angle_gamma   120.74947272
_symmetry_Int_Tables_number   1
_chemical_formula_structural   H2O
_chemical_formula_sum   'H8 O4'
_cell_volume   138.84279695
_cell_formula_units_Z   4
loop_
 _symmetry_equiv_pos_site_id
 _symmetry_equiv_pos_as_xyz
  1  'x, y, z'
loop_
 _atom_site_type_symbol
 _atom_site_label
 _atom_site_symmetry_multiplicity
 _atom_site_fract_x
 _atom_site_fract_y
 _atom_site_fract_z
 _atom_site_occupancy
  H  H0  1  0.609529  0.188941  0.404107  1
  H  H1  1  0.533434  0.460838  0.004757  1
  H  H2  1  0.800577  0.401257  0.089053  1
  H  H3  1  0.917103  0.443714  0.497066  1
  H  H4  1  0.188941  0.609529  0.904107  1
  H  H5  1  0.460838  0.533434  0.504757  1
  H  H6  1  0.401257  0.800577  0.589053  1
  H  H7  1  0.443714  0.917103  0.997066  1
  O  O8  1  0.669438  0.332897  0.500483  1
  O  O9  1  0.633904  0.319359  0.004534  1
  O  O10  1  0.332897  0.669438  0.000483  1
  O  O11  1  0.319359  0.633904  0.504534  1
