# generated using pymatgen
data_FeH4S2NO8
_symmetry_space_group_name_H-M   'P 1'
_cell_length_a   4.90997823
_cell_length_b   11.23717492
_cell_length_c   13.20772953
_cell_angle_alpha   92.53625927
_cell_angle_beta   100.80284450
_cell_angle_gamma   77.38453354
_symmetry_Int_Tables_number   1
_chemical_formula_structural   FeH4S2NO8
_chemical_formula_sum   'Fe4 H16 S8 N4 O32'
_cell_volume   698.52704650
_cell_formula_units_Z   4
loop_
 _symmetry_equiv_pos_site_id
 _symmetry_equiv_pos_as_xyz
  1  'x, y, z'
loop_
 _atom_site_type_symbol
 _atom_site_label
 _atom_site_symmetry_multiplicity
 _atom_site_fract_x
 _atom_site_fract_y
 _atom_site_fract_z
 _atom_site_occupancy
  Fe  Fe0  1  0.250402  0.248244  0.748871  1
  Fe  Fe1  1  0.000193  0.998200  0.998492  1
  Fe  Fe2  1  0.499981  0.498200  0.498581  1
  Fe  Fe3  1  0.750258  0.748227  0.248871  1
  H  H4  1  0.614745  0.698015  0.927327  1
  H  H5  1  0.864568  0.947984  0.677324  1
  H  H6  1  0.364579  0.447962  0.177318  1
  H  H7  1  0.114737  0.198032  0.427307  1
  H  H8  1  0.772648  0.631983  0.830871  1
  H  H9  1  0.022475  0.882142  0.580789  1
  H  H10  1  0.522489  0.382112  0.080780  1
  H  H11  1  0.272684  0.131956  0.330867  1
  H  H12  1  0.425890  0.632236  0.830541  1
  H  H13  1  0.675694  0.882328  0.580478  1
  H  H14  1  0.175702  0.382299  0.080472  1
  H  H15  1  0.925903  0.132205  0.330534  1
  H  H16  1  0.685514  0.545522  0.917340  1
  H  H17  1  0.935451  0.795555  0.667181  1
  H  H18  1  0.435454  0.295539  0.167172  1
  H  H19  1  0.185516  0.045539  0.417352  1
  S  S20  1  0.683087  0.213346  0.580937  1
  S  S21  1  0.932906  0.463177  0.330604  1
  S  S22  1  0.432940  0.963165  0.830593  1
  S  S23  1  0.182859  0.713332  0.080937  1
  S  S24  1  0.567847  0.033545  0.167032  1
  S  S25  1  0.817479  0.284001  0.917123  1
  S  S26  1  0.317419  0.784025  0.417126  1
  S  S27  1  0.067502  0.533842  0.666994  1
  N  N28  1  0.624737  0.626438  0.876162  1
  N  N29  1  0.874595  0.876495  0.626061  1
  N  N30  1  0.374604  0.376470  0.126055  1
  N  N31  1  0.124742  0.126441  0.376156  1
  O  O32  1  0.696800  0.111761  0.508691  1
  O  O33  1  0.948711  0.361541  0.258383  1
  O  O34  1  0.448704  0.861545  0.758372  1
  O  O35  1  0.196710  0.611746  0.008698  1
  O  O36  1  0.552674  0.136900  0.240717  1
  O  O37  1  0.802032  0.387665  0.990528  1
  O  O38  1  0.302014  0.887684  0.490533  1
  O  O39  1  0.052471  0.637322  0.740567  1
  O  O40  1  0.714888  0.325578  0.530565  1
  O  O41  1  0.964713  0.575372  0.280275  1
  O  O42  1  0.464725  0.075370  0.780267  1
  O  O43  1  0.214858  0.825540  0.030566  1
  O  O44  1  0.916104  0.183408  0.673331  1
  O  O45  1  0.165358  0.433484  0.423164  1
  O  O46  1  0.665341  0.933472  0.923154  1
  O  O47  1  0.415598  0.683408  0.173364  1
  O  O48  1  0.402993  0.240148  0.616652  1
  O  O49  1  0.652065  0.489704  0.365980  1
  O  O50  1  0.152059  0.989704  0.865965  1
  O  O51  1  0.902843  0.740174  0.116695  1
  O  O52  1  0.846514  0.010521  0.132074  1
  O  O53  1  0.096731  0.260729  0.882513  1
  O  O54  1  0.596710  0.760712  0.382544  1
  O  O55  1  0.346140  0.510840  0.632046  1
  O  O56  1  0.332228  0.064699  0.076863  1
  O  O57  1  0.582236  0.315293  0.826727  1
  O  O58  1  0.082206  0.815310  0.326728  1
  O  O59  1  0.832025  0.564832  0.576783  1
  O  O60  1  0.539864  0.923068  0.219381  1
  O  O61  1  0.788874  0.173720  0.969631  1
  O  O62  1  0.288744  0.673772  0.469628  1
  O  O63  1  0.039468  0.423418  0.719368  1
