# generated using pymatgen
data_P(HO)3
_symmetry_space_group_name_H-M   'P 1'
_cell_length_a   7.53575300
_cell_length_b   6.96328100
_cell_length_c   13.99434384
_cell_angle_alpha   60.46872073
_cell_angle_beta   90.00000000
_cell_angle_gamma   90.00000000
_symmetry_Int_Tables_number   1
_chemical_formula_structural   P(HO)3
_chemical_formula_sum   'P8 H24 O24'
_cell_volume   638.93351054
_cell_formula_units_Z   8
loop_
 _symmetry_equiv_pos_site_id
 _symmetry_equiv_pos_as_xyz
  1  'x, y, z'
loop_
 _atom_site_type_symbol
 _atom_site_label
 _atom_site_symmetry_multiplicity
 _atom_site_fract_x
 _atom_site_fract_y
 _atom_site_fract_z
 _atom_site_occupancy
  P  P0  1  0.772118  0.402858  0.618943  1
  P  P1  1  0.737309  0.171676  0.364180  1
  P  P2  1  0.227882  0.402858  0.118943  1
  P  P3  1  0.262691  0.171676  0.864180  1
  P  P4  1  0.701754  0.567964  0.895191  1
  P  P5  1  0.830066  0.818910  0.127787  1
  P  P6  1  0.298246  0.567964  0.395191  1
  P  P7  1  0.169934  0.818910  0.627787  1
  H  H8  1  0.479188  0.436369  0.545346  1
  H  H9  1  0.465445  0.235981  0.686562  1
  H  H10  1  0.019828  0.132798  0.315245  1
  H  H11  1  0.520812  0.436369  0.045346  1
  H  H12  1  0.534555  0.235981  0.186562  1
  H  H13  1  0.980172  0.132798  0.815245  1
  H  H14  1  0.796398  0.018548  0.728423  1
  H  H15  1  0.679681  0.955652  0.281325  1
  H  H16  1  0.203602  0.018548  0.228423  1
  H  H17  1  0.320319  0.955652  0.781325  1
  H  H18  1  0.955596  0.479002  0.479548  1
  H  H19  1  0.768229  0.875982  0.526328  1
  H  H20  1  0.044404  0.479002  0.979548  1
  H  H21  1  0.231771  0.875982  0.026328  1
  H  H22  1  0.807192  0.705099  0.726514  1
  H  H23  1  0.713208  0.592293  0.293743  1
  H  H24  1  0.192808  0.705099  0.226514  1
  H  H25  1  0.286792  0.592293  0.793743  1
  H  H26  1  0.715273  0.223098  0.929126  1
  H  H27  1  0.824382  0.585421  0.059207  1
  H  H28  1  0.284727  0.223098  0.429126  1
  H  H29  1  0.175618  0.585421  0.559207  1
  H  H30  1  0.553916  0.946355  0.046972  1
  H  H31  1  0.446084  0.946355  0.546972  1
  O  O32  1  0.545979  0.327869  0.613483  1
  O  O33  1  0.933258  0.068803  0.377541  1
  O  O34  1  0.454021  0.327869  0.113483  1
  O  O35  1  0.066742  0.068803  0.877541  1
  O  O36  1  0.826067  0.167478  0.722069  1
  O  O37  1  0.637848  0.094158  0.280153  1
  O  O38  1  0.173933  0.167478  0.222069  1
  O  O39  1  0.362152  0.094158  0.780153  1
  O  O40  1  0.828080  0.402261  0.510195  1
  O  O41  1  0.669510  0.977202  0.486982  1
  O  O42  1  0.171920  0.402261  0.010195  1
  O  O43  1  0.330490  0.977202  0.986982  1
  O  O44  1  0.740128  0.769328  0.764616  1
  O  O45  1  0.747904  0.750103  0.251199  1
  O  O46  1  0.259872  0.769328  0.264616  1
  O  O47  1  0.252096  0.750103  0.751199  1
  O  O48  1  0.725505  0.373657  0.863148  1
  O  O49  1  0.780210  0.593355  0.128017  1
  O  O50  1  0.274495  0.373657  0.363148  1
  O  O51  1  0.219790  0.593355  0.628017  1
  O  O52  1  0.871189  0.564164  0.961640  1
  O  O53  1  0.678151  0.995363  0.047223  1
  O  O54  1  0.128811  0.564164  0.461640  1
  O  O55  1  0.321849  0.995363  0.547223  1
