# generated using pymatgen
data_H3N
_symmetry_space_group_name_H-M   'P 1'
_cell_length_a   3.40289200
_cell_length_b   5.64856200
_cell_length_c   5.88989500
_cell_angle_alpha   90.00000000
_cell_angle_beta   90.00000000
_cell_angle_gamma   90.00000000
_symmetry_Int_Tables_number   1
_chemical_formula_structural   H3N
_chemical_formula_sum   'H12 N4'
_cell_volume   113.21230129
_cell_formula_units_Z   4
loop_
 _symmetry_equiv_pos_site_id
 _symmetry_equiv_pos_as_xyz
  1  'x, y, z'
loop_
 _atom_site_type_symbol
 _atom_site_label
 _atom_site_symmetry_multiplicity
 _atom_site_fract_x
 _atom_site_fract_y
 _atom_site_fract_z
 _atom_site_occupancy
  H  H0  1  0.122242  0.484159  0.055381  1
  H  H1  1  0.877758  0.984159  0.444619  1
  H  H2  1  0.622242  0.015841  0.944619  1
  H  H3  1  0.377758  0.515841  0.555381  1
  H  H4  1  0.729530  0.570518  0.916936  1
  H  H5  1  0.270470  0.070518  0.583064  1
  H  H6  1  0.229530  0.929482  0.083064  1
  H  H7  1  0.770470  0.429482  0.416936  1
  H  H8  1  0.978653  0.340444  0.826291  1
  H  H9  1  0.021347  0.840444  0.673709  1
  H  H10  1  0.478653  0.159556  0.173709  1
  H  H11  1  0.521347  0.659556  0.326291  1
  N  N12  1  0.010115  0.506391  0.895209  1
  N  N13  1  0.989885  0.006391  0.604791  1
  N  N14  1  0.510115  0.993609  0.104791  1
  N  N15  1  0.489885  0.493609  0.395209  1
