# generated using pymatgen
data_H8PtO6
_symmetry_space_group_name_H-M   'P 1'
_cell_length_a   5.60322052
_cell_length_b   5.60322052
_cell_length_c   7.31233325
_cell_angle_alpha   86.62778495
_cell_angle_beta   86.62778495
_cell_angle_gamma   82.68553578
_symmetry_Int_Tables_number   1
_chemical_formula_structural   H8PtO6
_chemical_formula_sum   'H16 Pt2 O12'
_cell_volume   227.01038129
_cell_formula_units_Z   2
loop_
 _symmetry_equiv_pos_site_id
 _symmetry_equiv_pos_as_xyz
  1  'x, y, z'
loop_
 _atom_site_type_symbol
 _atom_site_label
 _atom_site_symmetry_multiplicity
 _atom_site_fract_x
 _atom_site_fract_y
 _atom_site_fract_z
 _atom_site_occupancy
  H  H0  1  0.871277  0.626050  0.847604  1
  H  H1  1  0.146581  0.475518  0.839347  1
  H  H2  1  0.379914  0.132273  0.647540  1
  H  H3  1  0.256951  0.890545  0.746667  1
  H  H4  1  0.132273  0.379914  0.147540  1
  H  H5  1  0.890545  0.256951  0.246667  1
  H  H6  1  0.475518  0.146581  0.339347  1
  H  H7  1  0.626050  0.871277  0.347604  1
  H  H8  1  0.755078  0.606788  0.092322  1
  H  H9  1  0.462170  0.437650  0.509236  1
  H  H10  1  0.437650  0.462170  0.009236  1
  H  H11  1  0.606788  0.755078  0.592322  1
  H  H12  1  0.946139  0.029355  0.983274  1
  H  H13  1  0.851281  0.166429  0.712576  1
  H  H14  1  0.166429  0.851281  0.212576  1
  H  H15  1  0.029355  0.946139  0.483274  1
  Pt  Pt16  1  0.004138  0.497898  0.504322  1
  Pt  Pt17  1  0.497898  0.004138  0.004322  1
  O  O18  1  0.035222  0.596103  0.764651  1
  O  O19  1  0.406461  0.968930  0.740701  1
  O  O20  1  0.968930  0.406461  0.240701  1
  O  O21  1  0.596103  0.035222  0.264651  1
  O  O22  1  0.666158  0.662544  0.981992  1
  O  O23  1  0.344862  0.315621  0.511091  1
  O  O24  1  0.315621  0.344862  0.011091  1
  O  O25  1  0.662544  0.666158  0.481992  1
  O  O26  1  0.809762  0.138908  0.926361  1
  O  O27  1  0.872475  0.183656  0.573250  1
  O  O28  1  0.183656  0.872475  0.073250  1
  O  O29  1  0.138908  0.809762  0.426361  1
