# generated using pymatgen
data_Na4P2H4CO9
_symmetry_space_group_name_H-M   'P 1'
_cell_length_a   8.53862900
_cell_length_b   8.53862900
_cell_length_c   6.50524900
_cell_angle_alpha   90.00000000
_cell_angle_beta   90.00000000
_cell_angle_gamma   90.00000000
_symmetry_Int_Tables_number   1
_chemical_formula_structural   Na4P2H4CO9
_chemical_formula_sum   'Na8 P4 H8 C2 O18'
_cell_volume   474.28589886
_cell_formula_units_Z   2
loop_
 _symmetry_equiv_pos_site_id
 _symmetry_equiv_pos_as_xyz
  1  'x, y, z'
loop_
 _atom_site_type_symbol
 _atom_site_label
 _atom_site_symmetry_multiplicity
 _atom_site_fract_x
 _atom_site_fract_y
 _atom_site_fract_z
 _atom_site_occupancy
  Na  Na0  1  0.070721  0.818747  0.701104  1
  Na  Na1  1  0.929279  0.181253  0.701104  1
  Na  Na2  1  0.818747  0.929279  0.298896  1
  Na  Na3  1  0.181253  0.070721  0.298896  1
  Na  Na4  1  0.460922  0.799950  0.137124  1
  Na  Na5  1  0.539078  0.200050  0.137124  1
  Na  Na6  1  0.799950  0.539078  0.862876  1
  Na  Na7  1  0.200050  0.460922  0.862876  1
  P  P8  1  0.331424  0.090283  0.793100  1
  P  P9  1  0.668576  0.909717  0.793100  1
  P  P10  1  0.090283  0.668576  0.206900  1
  P  P11  1  0.909717  0.331424  0.206900  1
  H  H12  1  0.422062  0.678488  0.710895  1
  H  H13  1  0.577938  0.321512  0.710895  1
  H  H14  1  0.678488  0.577938  0.289105  1
  H  H15  1  0.321512  0.422062  0.289105  1
  H  H16  1  0.310461  0.644223  0.520174  1
  H  H17  1  0.689539  0.355777  0.520174  1
  H  H18  1  0.644223  0.689539  0.479826  1
  H  H19  1  0.355777  0.310461  0.479826  1
  C  C20  1  0.500000  0.000000  0.648231  1
  C  C21  1  0.000000  0.500000  0.351769  1
  O  O22  1  0.500000  0.000000  0.455961  1
  O  O23  1  0.000000  0.500000  0.544039  1
  O  O24  1  0.388776  0.263389  0.805242  1
  O  O25  1  0.611224  0.736611  0.805242  1
  O  O26  1  0.263389  0.611224  0.194758  1
  O  O27  1  0.736611  0.388776  0.194758  1
  O  O28  1  0.184039  0.070070  0.662811  1
  O  O29  1  0.815961  0.929930  0.662811  1
  O  O30  1  0.070070  0.815961  0.337189  1
  O  O31  1  0.929930  0.184039  0.337189  1
  O  O32  1  0.324182  0.011142  0.004056  1
  O  O33  1  0.675818  0.988858  0.004056  1
  O  O34  1  0.011142  0.675818  0.995945  1
  O  O35  1  0.988858  0.324182  0.995945  1
  O  O36  1  0.312859  0.652511  0.670755  1
  O  O37  1  0.687141  0.347489  0.670755  1
  O  O38  1  0.652511  0.687141  0.329245  1
  O  O39  1  0.347489  0.312859  0.329245  1
