# generated using pymatgen
data_Li7IN2
_symmetry_space_group_name_H-M   'P 1'
_cell_length_a   7.38256743
_cell_length_b   7.38256743
_cell_length_c   7.34559003
_cell_angle_alpha   60.20990251
_cell_angle_beta   60.20990251
_cell_angle_gamma   59.94294598
_symmetry_Int_Tables_number   1
_chemical_formula_structural   Li7IN2
_chemical_formula_sum   'Li14 I2 N4'
_cell_volume   283.86271889
_cell_formula_units_Z   2
loop_
 _symmetry_equiv_pos_site_id
 _symmetry_equiv_pos_as_xyz
  1  'x, y, z'
loop_
 _atom_site_type_symbol
 _atom_site_label
 _atom_site_symmetry_multiplicity
 _atom_site_fract_x
 _atom_site_fract_y
 _atom_site_fract_z
 _atom_site_occupancy
  Li  Li0  1  0.989571  0.989571  0.996019  1
  Li  Li1  1  0.573347  0.937855  0.918444  1
  Li  Li2  1  0.937855  0.573347  0.918444  1
  Li  Li3  1  0.934742  0.934742  0.562879  1
  Li  Li4  1  0.577967  0.577967  0.925362  1
  Li  Li5  1  0.923762  0.579369  0.575400  1
  Li  Li6  1  0.579369  0.923762  0.575400  1
  Li  Li7  1  0.213975  0.782440  0.788517  1
  Li  Li8  1  0.782440  0.213975  0.788517  1
  Li  Li9  1  0.785648  0.785648  0.210475  1
  Li  Li10  1  0.202901  0.202901  0.709573  1
  Li  Li11  1  0.729764  0.210348  0.209893  1
  Li  Li12  1  0.210348  0.729764  0.209893  1
  Li  Li13  1  0.121084  0.121084  0.083195  1
  I  I14  1  0.506835  0.506835  0.501434  1
  I  I15  1  0.271842  0.271842  0.257827  1
  N  N16  1  0.881355  0.881355  0.874655  1
  N  N17  1  0.890392  0.350944  0.885188  1
  N  N18  1  0.350944  0.890392  0.885188  1
  N  N19  1  0.888007  0.888007  0.348606  1
