# generated using pymatgen
data_In4SnS8
_symmetry_space_group_name_H-M   'P 1'
_cell_length_a   7.66262476
_cell_length_b   7.66262476
_cell_length_c   7.66262556
_cell_angle_alpha   60.13647611
_cell_angle_beta   60.13647611
_cell_angle_gamma   60.13647562
_symmetry_Int_Tables_number   1
_chemical_formula_structural   In4SnS8
_chemical_formula_sum   'In4 Sn1 S8'
_cell_volume   319.12314786
_cell_formula_units_Z   1
loop_
 _symmetry_equiv_pos_site_id
 _symmetry_equiv_pos_as_xyz
  1  'x, y, z'
loop_
 _atom_site_type_symbol
 _atom_site_label
 _atom_site_symmetry_multiplicity
 _atom_site_fract_x
 _atom_site_fract_y
 _atom_site_fract_z
 _atom_site_occupancy
  In  In0  1  0.472280  0.009860  0.009860  1
  In  In1  1  0.009860  0.009860  0.472280  1
  In  In2  1  0.009860  0.472280  0.009860  1
  In  In3  1  0.627701  0.627701  0.627701  1
  Sn  Sn4  1  0.010569  0.010569  0.010569  1
  S  S5  1  0.242607  0.242607  0.757438  1
  S  S6  1  0.757438  0.242607  0.242607  1
  S  S7  1  0.242607  0.757438  0.242607  1
  S  S8  1  0.246405  0.246405  0.246405  1
  S  S9  1  0.761641  0.761641  0.761641  1
  S  S10  1  0.761622  0.220792  0.761622  1
  S  S11  1  0.220792  0.761622  0.761622  1
  S  S12  1  0.761622  0.761622  0.220792  1
