# generated using pymatgen
data_KPH2SO3
_symmetry_space_group_name_H-M   'P 1'
_cell_length_a   4.58214750
_cell_length_b   4.58214750
_cell_length_c   6.01697029
_cell_angle_alpha   76.94930241
_cell_angle_beta   76.94930241
_cell_angle_gamma   88.14926909
_symmetry_Int_Tables_number   1
_chemical_formula_structural   KPH2SO3
_chemical_formula_sum   'K1 P1 H2 S1 O3'
_cell_volume   119.86759044
_cell_formula_units_Z   1
loop_
 _symmetry_equiv_pos_site_id
 _symmetry_equiv_pos_as_xyz
  1  'x, y, z'
loop_
 _atom_site_type_symbol
 _atom_site_label
 _atom_site_symmetry_multiplicity
 _atom_site_fract_x
 _atom_site_fract_y
 _atom_site_fract_z
 _atom_site_occupancy
  K  K0  1  0.847257  0.847257  0.388093  1
  P  P1  1  0.344861  0.344861  0.888792  1
  H  H2  1  0.829688  0.206980  0.811080  1
  H  H3  1  0.206980  0.829688  0.811080  1
  S  S4  1  0.384806  0.384806  0.202006  1
  O  O5  1  0.107084  0.107084  0.896040  1
  O  O6  1  0.651173  0.262321  0.730459  1
  O  O7  1  0.262321  0.651173  0.730459  1
