# generated using pymatgen
data_TiPb9O11
_symmetry_space_group_name_H-M   'P 1'
_cell_length_a   9.17648000
_cell_length_b   9.17648000
_cell_length_c   4.73438900
_cell_angle_alpha   90.00000000
_cell_angle_beta   90.00000000
_cell_angle_gamma   90.00000000
_symmetry_Int_Tables_number   1
_chemical_formula_structural   TiPb9O11
_chemical_formula_sum   'Ti1 Pb9 O11'
_cell_volume   398.67241192
_cell_formula_units_Z   1
loop_
 _symmetry_equiv_pos_site_id
 _symmetry_equiv_pos_as_xyz
  1  'x, y, z'
loop_
 _atom_site_type_symbol
 _atom_site_label
 _atom_site_symmetry_multiplicity
 _atom_site_fract_x
 _atom_site_fract_y
 _atom_site_fract_z
 _atom_site_occupancy
  Ti  Ti0  1  0.500000  0.500000  0.007636  1
  Pb  Pb1  1  0.302044  0.901495  0.758466  1
  Pb  Pb2  1  0.400155  0.201622  0.254623  1
  Pb  Pb3  1  0.098505  0.302044  0.758466  1
  Pb  Pb4  1  0.201622  0.599845  0.254623  1
  Pb  Pb5  1  0.901495  0.697956  0.758466  1
  Pb  Pb6  1  0.000000  0.000000  0.242440  1
  Pb  Pb7  1  0.697956  0.098505  0.758466  1
  Pb  Pb8  1  0.798378  0.400155  0.254623  1
  Pb  Pb9  1  0.599845  0.798378  0.254623  1
  O  O10  1  0.404616  0.695027  0.978560  1
  O  O11  1  0.197662  0.106750  0.002851  1
  O  O12  1  0.304973  0.404616  0.978560  1
  O  O13  1  0.000000  0.500000  0.011532  1
  O  O14  1  0.106750  0.802338  0.002851  1
  O  O15  1  0.802338  0.893250  0.002851  1
  O  O16  1  0.893250  0.197662  0.002851  1
  O  O17  1  0.595384  0.304973  0.978560  1
  O  O18  1  0.500000  0.500000  0.379326  1
  O  O19  1  0.695027  0.595384  0.978560  1
  O  O20  1  0.500000  0.000000  0.011532  1
