# generated using pymatgen
data_ScHO2
_symmetry_space_group_name_H-M   'P 1'
_cell_length_a   3.40190800
_cell_length_b   3.85771040
_cell_length_c   7.17191262
_cell_angle_alpha   85.98334383
_cell_angle_beta   81.62898783
_cell_angle_gamma   81.01086981
_symmetry_Int_Tables_number   1
_chemical_formula_structural   ScHO2
_chemical_formula_sum   'Sc2 H2 O4'
_cell_volume   91.86689685
_cell_formula_units_Z   2
loop_
 _symmetry_equiv_pos_site_id
 _symmetry_equiv_pos_as_xyz
  1  'x, y, z'
loop_
 _atom_site_type_symbol
 _atom_site_label
 _atom_site_symmetry_multiplicity
 _atom_site_fract_x
 _atom_site_fract_y
 _atom_site_fract_z
 _atom_site_occupancy
  Sc  Sc0  1  0.588821  0.187845  0.683564  1
  Sc  Sc1  1  0.434555  0.806805  0.306368  1
  H  H2  1  0.028571  0.472481  0.486934  1
  H  H3  1  0.019917  0.030807  0.975627  1
  O  O4  1  0.284459  0.292035  0.431243  1
  O  O5  1  0.705774  0.704919  0.572297  1
  O  O6  1  0.058602  0.159344  0.841156  1
  O  O7  1  0.957556  0.847857  0.163324  1
