# generated using pymatgen
data_LiAlSiH2O5
_symmetry_space_group_name_H-M   'P 1'
_cell_length_a   5.01679800
_cell_length_b   8.28802400
_cell_length_c   10.37917800
_cell_angle_alpha   90.00000000
_cell_angle_beta   90.00000000
_cell_angle_gamma   90.00000000
_symmetry_Int_Tables_number   1
_chemical_formula_structural   LiAlSiH2O5
_chemical_formula_sum   'Li4 Al4 Si4 H8 O20'
_cell_volume   431.55939410
_cell_formula_units_Z   4
loop_
 _symmetry_equiv_pos_site_id
 _symmetry_equiv_pos_as_xyz
  1  'x, y, z'
loop_
 _atom_site_type_symbol
 _atom_site_label
 _atom_site_symmetry_multiplicity
 _atom_site_fract_x
 _atom_site_fract_y
 _atom_site_fract_z
 _atom_site_occupancy
  Li  Li0  1  0.759006  0.320699  0.820278  1
  Li  Li1  1  0.259006  0.679301  0.179722  1
  Li  Li2  1  0.259006  0.820699  0.679722  1
  Li  Li3  1  0.759006  0.179301  0.320278  1
  Al  Al4  1  0.254139  0.423962  0.661471  1
  Al  Al5  1  0.754139  0.576038  0.338529  1
  Al  Al6  1  0.754139  0.923962  0.838529  1
  Al  Al7  1  0.254139  0.076038  0.161471  1
  Si  Si8  1  0.253551  0.128717  0.855495  1
  Si  Si9  1  0.753551  0.871283  0.144505  1
  Si  Si10  1  0.753551  0.628717  0.644505  1
  Si  Si11  1  0.253551  0.371283  0.355495  1
  H  H12  1  0.743524  0.341909  0.063401  1
  H  H13  1  0.243524  0.658091  0.936599  1
  H  H14  1  0.243524  0.841909  0.436599  1
  H  H15  1  0.743524  0.158091  0.563401  1
  H  H16  1  0.558799  0.477078  0.005760  1
  H  H17  1  0.058799  0.522922  0.994240  1
  H  H18  1  0.058799  0.977078  0.494240  1
  H  H19  1  0.558799  0.022922  0.505760  1
  O  O20  1  0.202778  0.344288  0.508217  1
  O  O21  1  0.702778  0.655712  0.491783  1
  O  O22  1  0.702778  0.844288  0.991783  1
  O  O23  1  0.202778  0.155712  0.008217  1
  O  O24  1  0.136075  0.286431  0.778169  1
  O  O25  1  0.636075  0.713569  0.221831  1
  O  O26  1  0.636075  0.786431  0.721831  1
  O  O27  1  0.136075  0.213569  0.278169  1
  O  O28  1  0.594460  0.465435  0.694541  1
  O  O29  1  0.094460  0.534565  0.305459  1
  O  O30  1  0.094460  0.965435  0.805459  1
  O  O31  1  0.594460  0.034565  0.194541  1
  O  O32  1  0.072264  0.607505  0.680261  1
  O  O33  1  0.572264  0.392495  0.319739  1
  O  O34  1  0.572264  0.107505  0.819739  1
  O  O35  1  0.072264  0.892495  0.180261  1
  O  O36  1  0.731704  0.420522  0.993679  1
  O  O37  1  0.231704  0.579478  0.006321  1
  O  O38  1  0.231704  0.920522  0.506321  1
  O  O39  1  0.731704  0.079478  0.493679  1
