# generated using pymatgen
data_Cd3AsI3
_symmetry_space_group_name_H-M   'P 1'
_cell_length_a   4.56130800
_cell_length_b   7.56142000
_cell_length_c   8.00493407
_cell_angle_alpha   89.11771022
_cell_angle_beta   90.00000000
_cell_angle_gamma   90.00000000
_symmetry_Int_Tables_number   1
_chemical_formula_structural   Cd3AsI3
_chemical_formula_sum   'Cd3 As1 I3'
_cell_volume   276.05716681
_cell_formula_units_Z   1
loop_
 _symmetry_equiv_pos_site_id
 _symmetry_equiv_pos_as_xyz
  1  'x, y, z'
loop_
 _atom_site_type_symbol
 _atom_site_label
 _atom_site_symmetry_multiplicity
 _atom_site_fract_x
 _atom_site_fract_y
 _atom_site_fract_z
 _atom_site_occupancy
  Cd  Cd0  1  0.500000  0.398627  0.163041  1
  Cd  Cd1  1  0.000000  0.944708  0.285157  1
  Cd  Cd2  1  0.500000  0.940081  0.865487  1
  As  As3  1  0.500000  0.055892  0.168870  1
  I  I4  1  0.000000  0.054127  0.655036  1
  I  I5  1  0.000000  0.551569  0.354533  1
  I  I6  1  0.500000  0.562995  0.841208  1
