# generated using pymatgen
data_Zn(HO)2
_symmetry_space_group_name_H-M   'P 1'
_cell_length_a   4.87176500
_cell_length_b   5.06348100
_cell_length_c   8.75225500
_cell_angle_alpha   90.00000000
_cell_angle_beta   90.00000000
_cell_angle_gamma   90.00000000
_symmetry_Int_Tables_number   1
_chemical_formula_structural   Zn(HO)2
_chemical_formula_sum   'Zn4 H8 O8'
_cell_volume   215.90140979
_cell_formula_units_Z   4
loop_
 _symmetry_equiv_pos_site_id
 _symmetry_equiv_pos_as_xyz
  1  'x, y, z'
loop_
 _atom_site_type_symbol
 _atom_site_label
 _atom_site_symmetry_multiplicity
 _atom_site_fract_x
 _atom_site_fract_y
 _atom_site_fract_z
 _atom_site_occupancy
  Zn  Zn0  1  0.067570  0.642226  0.123390  1
  Zn  Zn1  1  0.932430  0.142226  0.376610  1
  Zn  Zn2  1  0.567570  0.857774  0.876610  1
  Zn  Zn3  1  0.432430  0.357774  0.623390  1
  H  H4  1  0.257409  0.175215  0.158357  1
  H  H5  1  0.742591  0.675215  0.341643  1
  H  H6  1  0.757409  0.324785  0.841643  1
  H  H7  1  0.242591  0.824785  0.658357  1
  H  H8  1  0.030919  0.641940  0.847283  1
  H  H9  1  0.969081  0.141940  0.652717  1
  H  H10  1  0.530919  0.858060  0.152717  1
  H  H11  1  0.469081  0.358060  0.347283  1
  O  O12  1  0.188286  0.316113  0.228961  1
  O  O13  1  0.811714  0.816113  0.271039  1
  O  O14  1  0.688286  0.183887  0.771039  1
  O  O15  1  0.311714  0.683887  0.728961  1
  O  O16  1  0.879131  0.611773  0.922884  1
  O  O17  1  0.120869  0.111773  0.577116  1
  O  O18  1  0.379131  0.888227  0.077116  1
  O  O19  1  0.620869  0.388227  0.422884  1
