# generated using pymatgen
data_Li4MoO5
_symmetry_space_group_name_H-M   'P 1'
_cell_length_a   5.13217814
_cell_length_b   5.13217814
_cell_length_c   5.13217814
_cell_angle_alpha   99.99272817
_cell_angle_beta   99.99272817
_cell_angle_gamma   130.76466456
_symmetry_Int_Tables_number   1
_chemical_formula_structural   Li4MoO5
_chemical_formula_sum   'Li4 Mo1 O5'
_cell_volume   93.07747543
_cell_formula_units_Z   1
loop_
 _symmetry_equiv_pos_site_id
 _symmetry_equiv_pos_as_xyz
  1  'x, y, z'
loop_
 _atom_site_type_symbol
 _atom_site_label
 _atom_site_symmetry_multiplicity
 _atom_site_fract_x
 _atom_site_fract_y
 _atom_site_fract_z
 _atom_site_occupancy
  Li  Li0  1  0.815400  0.597644  0.410444  1
  Li  Li1  1  0.597644  0.187200  0.782244  1
  Li  Li2  1  0.404956  0.815400  0.217756  1
  Li  Li3  1  0.187200  0.404956  0.589556  1
  Mo  Mo4  1  0.049853  0.049853  0.000000  1
  O  O5  1  0.260948  0.073779  0.362041  1
  O  O6  1  0.073779  0.711737  0.812831  1
  O  O7  1  0.898907  0.260948  0.187169  1
  O  O8  1  0.711737  0.898907  0.637959  1
  O  O9  1  0.481277  0.481277  0.000000  1
