# generated using pymatgen
data_H7ClO3
_symmetry_space_group_name_H-M   'P 1'
_cell_length_a   6.41121042
_cell_length_b   6.41121042
_cell_length_c   6.78989888
_cell_angle_alpha   70.74928569
_cell_angle_beta   70.74928569
_cell_angle_gamma   107.23131530
_symmetry_Int_Tables_number   1
_chemical_formula_structural   H7ClO3
_chemical_formula_sum   'H14 Cl2 O6'
_cell_volume   221.59730313
_cell_formula_units_Z   2
loop_
 _symmetry_equiv_pos_site_id
 _symmetry_equiv_pos_as_xyz
  1  'x, y, z'
loop_
 _atom_site_type_symbol
 _atom_site_label
 _atom_site_symmetry_multiplicity
 _atom_site_fract_x
 _atom_site_fract_y
 _atom_site_fract_z
 _atom_site_occupancy
  H  H0  1  0.792764  0.820709  0.551242  1
  H  H1  1  0.670695  0.916534  0.397009  1
  H  H2  1  0.820709  0.792764  0.051242  1
  H  H3  1  0.916534  0.670695  0.897009  1
  H  H4  1  0.184542  0.307572  0.756128  1
  H  H5  1  0.468799  0.539491  0.617182  1
  H  H6  1  0.539491  0.468799  0.117182  1
  H  H7  1  0.307572  0.184542  0.256128  1
  H  H8  1  0.499854  0.946067  0.741219  1
  H  H9  1  0.413802  0.221382  0.724535  1
  H  H10  1  0.579776  0.075064  0.886367  1
  H  H11  1  0.946067  0.499854  0.241219  1
  H  H12  1  0.221382  0.413802  0.224535  1
  H  H13  1  0.075064  0.579776  0.386367  1
  Cl  Cl14  1  0.130562  0.832838  0.517962  1
  Cl  Cl15  1  0.832838  0.130562  0.017962  1
  O  O16  1  0.628955  0.804532  0.561187  1
  O  O17  1  0.804532  0.628955  0.061187  1
  O  O18  1  0.363089  0.365955  0.642823  1
  O  O19  1  0.365955  0.363089  0.142823  1
  O  O20  1  0.450979  0.028735  0.836247  1
  O  O21  1  0.028735  0.450979  0.336247  1
