# generated using pymatgen
data_Ca5B3O9F
_symmetry_space_group_name_H-M   'P 1'
_cell_length_a   9.09264106
_cell_length_b   9.09264106
_cell_length_c   3.57233613
_cell_angle_alpha   85.18017002
_cell_angle_beta   85.18017002
_cell_angle_gamma   126.40893224
_symmetry_Int_Tables_number   1
_chemical_formula_structural   Ca5B3O9F
_chemical_formula_sum   'Ca5 B3 O9 F1'
_cell_volume   233.53048002
_cell_formula_units_Z   1
loop_
 _symmetry_equiv_pos_site_id
 _symmetry_equiv_pos_as_xyz
  1  'x, y, z'
loop_
 _atom_site_type_symbol
 _atom_site_label
 _atom_site_symmetry_multiplicity
 _atom_site_fract_x
 _atom_site_fract_y
 _atom_site_fract_z
 _atom_site_occupancy
  Ca  Ca0  1  0.738021  0.382316  0.996046  1
  Ca  Ca1  1  0.065157  0.301492  0.652148  1
  Ca  Ca2  1  0.301492  0.065157  0.652148  1
  Ca  Ca3  1  0.382316  0.738021  0.996046  1
  Ca  Ca4  1  0.793057  0.793057  0.363255  1
  B  B5  1  0.680389  0.073223  0.406810  1
  B  B6  1  0.440521  0.440521  0.035676  1
  B  B7  1  0.073223  0.680389  0.406810  1
  O  O8  1  0.612469  0.612469  0.948864  1
  O  O9  1  0.593643  0.885050  0.421226  1
  O  O10  1  0.280048  0.428170  0.079867  1
  O  O11  1  0.858647  0.205200  0.205494  1
  O  O12  1  0.428170  0.280048  0.079867  1
  O  O13  1  0.205200  0.858647  0.205494  1
  O  O14  1  0.592219  0.136992  0.590033  1
  O  O15  1  0.136992  0.592219  0.590033  1
  O  O16  1  0.885050  0.593643  0.421226  1
  F  F17  1  0.999786  0.999786  0.751355  1
