# generated using pymatgen
data_FeHO2
_symmetry_space_group_name_H-M   'P 1'
_cell_length_a   3.05611900
_cell_length_b   4.64196100
_cell_length_c   10.05552300
_cell_angle_alpha   89.99864878
_cell_angle_beta   89.99999431
_cell_angle_gamma   90.00068307
_symmetry_Int_Tables_number   1
_chemical_formula_structural   FeHO2
_chemical_formula_sum   'Fe4 H4 O8'
_cell_volume   142.65152273
_cell_formula_units_Z   4
loop_
 _symmetry_equiv_pos_site_id
 _symmetry_equiv_pos_as_xyz
  1  'x, y, z'
loop_
 _atom_site_type_symbol
 _atom_site_label
 _atom_site_symmetry_multiplicity
 _atom_site_fract_x
 _atom_site_fract_y
 _atom_site_fract_z
 _atom_site_occupancy
  Fe  Fe0  1  0.751208  0.443022  0.355349  1
  Fe  Fe1  1  0.748813  0.056971  0.855354  1
  Fe  Fe2  1  0.251171  0.556972  0.644652  1
  Fe  Fe3  1  0.248846  0.943036  0.144651  1
  H  H4  1  0.252899  0.896215  0.409059  1
  H  H5  1  0.247088  0.603778  0.909060  1
  H  H6  1  0.752900  0.103768  0.590943  1
  H  H7  1  0.747085  0.396244  0.090941  1
  O  O8  1  0.250646  0.190269  0.304289  1
  O  O9  1  0.249361  0.309731  0.804289  1
  O  O10  1  0.750618  0.809727  0.695706  1
  O  O11  1  0.749378  0.690269  0.195708  1
  O  O12  1  0.253045  0.693279  0.443296  1
  O  O13  1  0.246951  0.806712  0.943299  1
  O  O14  1  0.753041  0.306701  0.556701  1
  O  O15  1  0.746949  0.193306  0.056703  1
