# generated using pymatgen
data_As(CN)3
_symmetry_space_group_name_H-M   'P 1'
_cell_length_a   5.85090904
_cell_length_b   5.85090904
_cell_length_c   9.06487864
_cell_angle_alpha   80.92238005
_cell_angle_beta   80.92238005
_cell_angle_gamma   73.55955993
_symmetry_Int_Tables_number   1
_chemical_formula_structural   As(CN)3
_chemical_formula_sum   'As2 C6 N6'
_cell_volume   291.80011234
_cell_formula_units_Z   2
loop_
 _symmetry_equiv_pos_site_id
 _symmetry_equiv_pos_as_xyz
  1  'x, y, z'
loop_
 _atom_site_type_symbol
 _atom_site_label
 _atom_site_symmetry_multiplicity
 _atom_site_fract_x
 _atom_site_fract_y
 _atom_site_fract_z
 _atom_site_occupancy
  As  As0  1  0.698787  0.706132  0.259802  1
  As  As1  1  0.293868  0.301213  0.740198  1
  C  C2  1  0.019181  0.762308  0.251768  1
  C  C3  1  0.088403  0.345870  0.933295  1
  C  C4  1  0.654130  0.911597  0.066705  1
  C  C5  1  0.237692  0.980819  0.748232  1
  C  C6  1  0.560024  0.987179  0.369662  1
  C  C7  1  0.012821  0.439976  0.630338  1
  N  N8  1  0.480107  0.142702  0.444600  1
  N  N9  1  0.616733  0.018219  0.948989  1
  N  N10  1  0.221009  0.785834  0.753869  1
  N  N11  1  0.214166  0.778991  0.246131  1
  N  N12  1  0.981781  0.383267  0.051011  1
  N  N13  1  0.857298  0.519893  0.555400  1
