# generated using pymatgen
data_TiNbTl(O2F)2
_symmetry_space_group_name_H-M   'P 1'
_cell_length_a   7.36351286
_cell_length_b   7.36351286
_cell_length_c   7.45304822
_cell_angle_alpha   60.98412278
_cell_angle_beta   60.98412278
_cell_angle_gamma   90.21745118
_symmetry_Int_Tables_number   1
_chemical_formula_structural   TiNbTl(O2F)2
_chemical_formula_sum   'Ti2 Nb2 Tl2 O8 F4'
_cell_volume   293.54626512
_cell_formula_units_Z   2
loop_
 _symmetry_equiv_pos_site_id
 _symmetry_equiv_pos_as_xyz
  1  'x, y, z'
loop_
 _atom_site_type_symbol
 _atom_site_label
 _atom_site_symmetry_multiplicity
 _atom_site_fract_x
 _atom_site_fract_y
 _atom_site_fract_z
 _atom_site_occupancy
  Ti  Ti0  1  0.998812  0.509750  0.985849  1
  Ti  Ti1  1  0.509750  0.998812  0.485849  1
  Nb  Nb2  1  0.981152  0.997897  0.010713  1
  Nb  Nb3  1  0.997897  0.981152  0.510713  1
  Tl  Tl4  1  0.413220  0.735269  0.172572  1
  Tl  Tl5  1  0.735269  0.413220  0.672572  1
  O  O6  1  0.052178  0.308071  0.897861  1
  O  O7  1  0.069302  0.932362  0.250276  1
  O  O8  1  0.308071  0.052178  0.397861  1
  O  O9  1  0.691077  0.950038  0.607285  1
  O  O10  1  0.676215  0.930396  0.257927  1
  O  O11  1  0.932362  0.069302  0.750276  1
  O  O12  1  0.950038  0.691077  0.107285  1
  O  O13  1  0.930396  0.676215  0.757927  1
  F  F14  1  0.068302  0.324387  0.246812  1
  F  F15  1  0.685204  0.316368  0.250705  1
  F  F16  1  0.324387  0.068302  0.746812  1
  F  F17  1  0.316368  0.685204  0.750705  1
