# generated using pymatgen
data_Pr4Ag2Se7
_symmetry_space_group_name_H-M   'P 1'
_cell_length_a   12.38878500
_cell_length_b   7.56419600
_cell_length_c   7.88456151
_cell_angle_alpha   71.09593525
_cell_angle_beta   90.00000000
_cell_angle_gamma   90.00000000
_symmetry_Int_Tables_number   1
_chemical_formula_structural   Pr4Ag2Se7
_chemical_formula_sum   'Pr8 Ag4 Se14'
_cell_volume   699.01872056
_cell_formula_units_Z   2
loop_
 _symmetry_equiv_pos_site_id
 _symmetry_equiv_pos_as_xyz
  1  'x, y, z'
loop_
 _atom_site_type_symbol
 _atom_site_label
 _atom_site_symmetry_multiplicity
 _atom_site_fract_x
 _atom_site_fract_y
 _atom_site_fract_z
 _atom_site_occupancy
  Pr  Pr0  1  0.204476  0.176053  0.201336  1
  Pr  Pr1  1  0.937812  0.556924  0.053340  1
  Pr  Pr2  1  0.062188  0.556924  0.553340  1
  Pr  Pr3  1  0.795524  0.176053  0.701336  1
  Pr  Pr4  1  0.851258  0.986263  0.260388  1
  Pr  Pr5  1  0.148742  0.986263  0.760388  1
  Pr  Pr6  1  0.372265  0.483511  0.751762  1
  Pr  Pr7  1  0.627735  0.483511  0.251762  1
  Ag  Ag8  1  0.684854  0.690213  0.680960  1
  Ag  Ag9  1  0.442077  0.093038  0.551390  1
  Ag  Ag10  1  0.557923  0.093038  0.051390  1
  Ag  Ag11  1  0.315146  0.690213  0.180960  1
  Se  Se12  1  0.004023  0.238483  0.387451  1
  Se  Se13  1  0.169222  0.564401  0.917670  1
  Se  Se14  1  0.932038  0.829372  0.680632  1
  Se  Se15  1  0.830778  0.564401  0.417670  1
  Se  Se16  1  0.710069  0.849433  0.002961  1
  Se  Se17  1  0.067962  0.829372  0.180632  1
  Se  Se18  1  0.651052  0.042761  0.452745  1
  Se  Se19  1  0.422144  0.397875  0.136062  1
  Se  Se20  1  0.348948  0.042761  0.952745  1
  Se  Se21  1  0.252804  0.341675  0.507304  1
  Se  Se22  1  0.995977  0.238483  0.887451  1
  Se  Se23  1  0.577856  0.397875  0.636062  1
  Se  Se24  1  0.747196  0.341675  0.007304  1
  Se  Se25  1  0.289931  0.849433  0.502961  1
