# generated using pymatgen
data_MgSiO3
_symmetry_space_group_name_H-M   'P 1'
_cell_length_a   4.87025800
_cell_length_b   10.13271800
_cell_length_c   10.95624600
_cell_angle_alpha   90.00000000
_cell_angle_beta   90.00000000
_cell_angle_gamma   90.00000000
_symmetry_Int_Tables_number   1
_chemical_formula_structural   MgSiO3
_chemical_formula_sum   'Mg8 Si8 O24'
_cell_volume   540.67924592
_cell_formula_units_Z   8
loop_
 _symmetry_equiv_pos_site_id
 _symmetry_equiv_pos_as_xyz
  1  'x, y, z'
loop_
 _atom_site_type_symbol
 _atom_site_label
 _atom_site_symmetry_multiplicity
 _atom_site_fract_x
 _atom_site_fract_y
 _atom_site_fract_z
 _atom_site_occupancy
  Mg  Mg0  1  0.287145  0.973363  0.465634  1
  Mg  Mg1  1  0.651339  0.255928  0.026783  1
  Mg  Mg2  1  0.848661  0.755928  0.526783  1
  Mg  Mg3  1  0.151339  0.255928  0.473217  1
  Mg  Mg4  1  0.712855  0.473363  0.534366  1
  Mg  Mg5  1  0.212855  0.473363  0.965634  1
  Mg  Mg6  1  0.787145  0.973363  0.034366  1
  Mg  Mg7  1  0.348661  0.755928  0.973217  1
  Si  Si8  1  0.570791  0.259022  0.328710  1
  Si  Si9  1  0.070791  0.259022  0.171290  1
  Si  Si10  1  0.892126  0.176174  0.667280  1
  Si  Si11  1  0.392126  0.176174  0.832720  1
  Si  Si12  1  0.607874  0.676174  0.167280  1
  Si  Si13  1  0.429209  0.759022  0.671290  1
  Si  Si14  1  0.929209  0.759022  0.828710  1
  Si  Si15  1  0.107874  0.676174  0.332720  1
  O  O16  1  0.412699  0.278001  0.190203  1
  O  O17  1  0.470169  0.371071  0.424356  1
  O  O18  1  0.925157  0.326583  0.610238  1
  O  O19  1  0.431520  0.652248  0.294964  1
  O  O20  1  0.587301  0.778001  0.809797  1
  O  O21  1  0.931520  0.652248  0.205036  1
  O  O22  1  0.939409  0.125002  0.120427  1
  O  O23  1  0.439409  0.125002  0.379573  1
  O  O24  1  0.970169  0.371071  0.075644  1
  O  O25  1  0.568480  0.152248  0.705036  1
  O  O26  1  0.029831  0.871071  0.924356  1
  O  O27  1  0.087301  0.778001  0.690203  1
  O  O28  1  0.425157  0.326583  0.889762  1
  O  O29  1  0.060591  0.625002  0.879573  1
  O  O30  1  0.982507  0.586708  0.443826  1
  O  O31  1  0.017493  0.086708  0.556174  1
  O  O32  1  0.560591  0.625002  0.620427  1
  O  O33  1  0.574843  0.826583  0.110238  1
  O  O34  1  0.529831  0.871071  0.575644  1
  O  O35  1  0.068480  0.152248  0.794964  1
  O  O36  1  0.517493  0.086708  0.943826  1
  O  O37  1  0.912699  0.278001  0.309797  1
  O  O38  1  0.074843  0.826583  0.389762  1
  O  O39  1  0.482507  0.586708  0.056174  1
