# generated using pymatgen
data_P(HO)3
_symmetry_space_group_name_H-M   'P 1'
_cell_length_a   7.14944000
_cell_length_b   7.53609300
_cell_length_c   11.86611100
_cell_angle_alpha   90.00000000
_cell_angle_beta   90.00000000
_cell_angle_gamma   90.00000000
_symmetry_Int_Tables_number   1
_chemical_formula_structural   P(HO)3
_chemical_formula_sum   'P8 H24 O24'
_cell_volume   639.33235221
_cell_formula_units_Z   8
loop_
 _symmetry_equiv_pos_site_id
 _symmetry_equiv_pos_as_xyz
  1  'x, y, z'
loop_
 _atom_site_type_symbol
 _atom_site_label
 _atom_site_symmetry_multiplicity
 _atom_site_fract_x
 _atom_site_fract_y
 _atom_site_fract_z
 _atom_site_occupancy
  P  P0  1  0.033420  0.511056  0.385911  1
  P  P1  1  0.533420  0.488944  0.614089  1
  P  P2  1  0.533420  0.988944  0.885911  1
  P  P3  1  0.033420  0.011056  0.114089  1
  P  P4  1  0.467220  0.578598  0.135701  1
  P  P5  1  0.967220  0.421402  0.864299  1
  P  P6  1  0.967220  0.921402  0.635701  1
  P  P7  1  0.467220  0.078598  0.364299  1
  H  H8  1  0.822185  0.730845  0.418345  1
  H  H9  1  0.322185  0.269155  0.581655  1
  H  H10  1  0.322185  0.769155  0.918345  1
  H  H11  1  0.822185  0.230845  0.081655  1
  H  H12  1  0.934825  0.339266  0.241331  1
  H  H13  1  0.434825  0.660734  0.758669  1
  H  H14  1  0.434825  0.160734  0.741331  1
  H  H15  1  0.934825  0.839266  0.258669  1
  H  H16  1  0.969997  0.508885  0.575226  1
  H  H17  1  0.469997  0.491115  0.424774  1
  H  H18  1  0.469997  0.991115  0.075226  1
  H  H19  1  0.969997  0.008885  0.924774  1
  H  H20  1  0.652787  0.460428  0.269005  1
  H  H21  1  0.152787  0.539572  0.730995  1
  H  H22  1  0.152787  0.039572  0.769005  1
  H  H23  1  0.652787  0.960428  0.230995  1
  H  H24  1  0.164882  0.559422  0.080621  1
  H  H25  1  0.664882  0.440578  0.919379  1
  H  H26  1  0.664882  0.940578  0.580621  1
  H  H27  1  0.164882  0.059422  0.419379  1
  H  H28  1  0.453072  0.305424  0.043399  1
  H  H29  1  0.953072  0.694576  0.956601  1
  H  H30  1  0.953072  0.194576  0.543399  1
  H  H31  1  0.453072  0.805424  0.456601  1
  O  O32  1  0.945315  0.716463  0.382245  1
  O  O33  1  0.445315  0.283537  0.617755  1
  O  O34  1  0.445315  0.783537  0.882245  1
  O  O35  1  0.945315  0.216463  0.117755  1
  O  O36  1  0.880915  0.404380  0.306873  1
  O  O37  1  0.380915  0.595620  0.693127  1
  O  O38  1  0.380915  0.095620  0.806873  1
  O  O39  1  0.880915  0.904380  0.193127  1
  O  O40  1  0.937795  0.442301  0.506053  1
  O  O41  1  0.437795  0.557699  0.493947  1
  O  O42  1  0.437795  0.057699  0.006053  1
  O  O43  1  0.937795  0.942301  0.993947  1
  O  O44  1  0.516208  0.476498  0.255402  1
  O  O45  1  0.016208  0.523502  0.744598  1
  O  O46  1  0.016208  0.023502  0.755402  1
  O  O47  1  0.516208  0.976498  0.244598  1
  O  O48  1  0.240875  0.560784  0.151178  1
  O  O49  1  0.740875  0.439216  0.848822  1
  O  O50  1  0.740875  0.939216  0.651178  1
  O  O51  1  0.240875  0.060784  0.348822  1
  O  O52  1  0.515009  0.422821  0.039428  1
  O  O53  1  0.015009  0.577179  0.960572  1
  O  O54  1  0.015009  0.077179  0.539428  1
  O  O55  1  0.515009  0.922821  0.460572  1
