# generated using pymatgen
data_NaP3(PbO3)4
_symmetry_space_group_name_H-M   'P 1'
_cell_length_a   9.87025202
_cell_length_b   9.87025202
_cell_length_c   7.32504700
_cell_angle_alpha   90.00000000
_cell_angle_beta   90.00000000
_cell_angle_gamma   120.00000015
_symmetry_Int_Tables_number   1
_chemical_formula_structural   NaP3(PbO3)4
_chemical_formula_sum   'Na2 P6 Pb8 O24'
_cell_volume   618.01288588
_cell_formula_units_Z   2
loop_
 _symmetry_equiv_pos_site_id
 _symmetry_equiv_pos_as_xyz
  1  'x, y, z'
loop_
 _atom_site_type_symbol
 _atom_site_label
 _atom_site_symmetry_multiplicity
 _atom_site_fract_x
 _atom_site_fract_y
 _atom_site_fract_z
 _atom_site_occupancy
  Na  Na0  1  0.333333  0.666667  0.506433  1
  Na  Na1  1  0.666667  0.333333  0.006433  1
  P  P2  1  0.020734  0.395748  0.251363  1
  P  P3  1  0.375013  0.979266  0.251363  1
  P  P4  1  0.395748  0.375013  0.751363  1
  P  P5  1  0.604252  0.624987  0.251363  1
  P  P6  1  0.624987  0.020734  0.751363  1
  P  P7  1  0.979266  0.604252  0.751363  1
  Pb  Pb8  1  0.258521  0.001367  0.749630  1
  Pb  Pb9  1  0.998633  0.257154  0.749630  1
  Pb  Pb10  1  0.333333  0.666667  0.988583  1
  Pb  Pb11  1  0.257154  0.258521  0.249630  1
  Pb  Pb12  1  0.742846  0.741479  0.749630  1
  Pb  Pb13  1  0.666667  0.333333  0.488583  1
  Pb  Pb14  1  0.001367  0.742846  0.249630  1
  Pb  Pb15  1  0.741479  0.998633  0.249630  1
  O  O16  1  0.266307  0.917742  0.079306  1
  O  O17  1  0.262951  0.923770  0.419128  1
  O  O18  1  0.104225  0.579486  0.256263  1
  O  O19  1  0.159157  0.677475  0.745972  1
  O  O20  1  0.082258  0.348565  0.079306  1
  O  O21  1  0.076230  0.339181  0.419128  1
  O  O22  1  0.475261  0.895775  0.256263  1
  O  O23  1  0.322525  0.481683  0.745972  1
  O  O24  1  0.518317  0.840843  0.745972  1
  O  O25  1  0.420514  0.524739  0.256263  1
  O  O26  1  0.348565  0.266307  0.579306  1
  O  O27  1  0.339181  0.262951  0.919128  1
  O  O28  1  0.651435  0.733693  0.079306  1
  O  O29  1  0.660819  0.737049  0.419128  1
  O  O30  1  0.579486  0.475261  0.756263  1
  O  O31  1  0.481683  0.159157  0.245972  1
  O  O32  1  0.677475  0.518317  0.245972  1
  O  O33  1  0.524739  0.104225  0.756263  1
  O  O34  1  0.917742  0.651435  0.579306  1
  O  O35  1  0.923770  0.660819  0.919128  1
  O  O36  1  0.840843  0.322525  0.245972  1
  O  O37  1  0.895775  0.420514  0.756263  1
  O  O38  1  0.733693  0.082258  0.579306  1
  O  O39  1  0.737049  0.076230  0.919128  1
