# generated using pymatgen
data_H2SO4
_symmetry_space_group_name_H-M   'P 1'
_cell_length_a   4.81422279
_cell_length_b   4.81422279
_cell_length_c   9.55363320
_cell_angle_alpha   68.71931376
_cell_angle_beta   68.71931376
_cell_angle_gamma   62.75986290
_symmetry_Int_Tables_number   1
_chemical_formula_structural   H2SO4
_chemical_formula_sum   'H4 S2 O8'
_cell_volume   178.19043539
_cell_formula_units_Z   2
loop_
 _symmetry_equiv_pos_site_id
 _symmetry_equiv_pos_as_xyz
  1  'x, y, z'
loop_
 _atom_site_type_symbol
 _atom_site_label
 _atom_site_symmetry_multiplicity
 _atom_site_fract_x
 _atom_site_fract_y
 _atom_site_fract_z
 _atom_site_occupancy
  H  H0  1  0.319289  0.141122  0.898143  1
  H  H1  1  0.858878  0.680711  0.101857  1
  H  H2  1  0.537140  0.773362  0.589178  1
  H  H3  1  0.226638  0.462860  0.410822  1
  S  S4  1  0.137637  0.862363  0.500000  1
  S  S5  1  0.829431  0.170569  0.000000  1
  O  O6  1  0.826699  0.848991  0.588572  1
  O  O7  1  0.151009  0.173301  0.411428  1
  O  O8  1  0.149385  0.115150  0.871531  1
  O  O9  1  0.884850  0.850615  0.128469  1
  O  O10  1  0.349630  0.703501  0.618361  1
  O  O11  1  0.296499  0.650370  0.381639  1
  O  O12  1  0.588817  0.224557  0.927360  1
  O  O13  1  0.775443  0.411183  0.072640  1
