# generated using pymatgen
data_KNiPH2O5
_symmetry_space_group_name_H-M   'P 1'
_cell_length_a   5.61027600
_cell_length_b   8.36101402
_cell_length_c   9.54144701
_cell_angle_alpha   89.99388533
_cell_angle_beta   90.00040254
_cell_angle_gamma   90.00443644
_symmetry_Int_Tables_number   1
_chemical_formula_structural   KNiPH2O5
_chemical_formula_sum   'K4 Ni4 P4 H8 O20'
_cell_volume   447.56634090
_cell_formula_units_Z   4
loop_
 _symmetry_equiv_pos_site_id
 _symmetry_equiv_pos_as_xyz
  1  'x, y, z'
loop_
 _atom_site_type_symbol
 _atom_site_label
 _atom_site_symmetry_multiplicity
 _atom_site_fract_x
 _atom_site_fract_y
 _atom_site_fract_z
 _atom_site_occupancy
  K  K0  1  0.499981  0.457652  0.315361  1
  K  K1  1  0.499982  0.457653  0.815387  1
  K  K2  1  0.999981  0.542793  0.065364  1
  K  K3  1  0.999982  0.542769  0.565369  1
  Ni  Ni4  1  0.499657  0.017289  0.752270  1
  Ni  Ni5  1  0.000039  0.982837  0.502526  1
  Ni  Ni6  1  0.500049  0.017378  0.252215  1
  Ni  Ni7  1  0.000293  0.982763  0.002603  1
  P  P8  1  0.500031  0.791282  0.039029  1
  P  P9  1  0.500031  0.791274  0.539008  1
  P  P10  1  0.000033  0.208520  0.289059  1
  P  P11  1  0.999951  0.208456  0.789129  1
  H  H12  1  0.640338  0.191062  0.042727  1
  H  H13  1  0.640346  0.191062  0.542769  1
  H  H14  1  0.359669  0.191074  0.042747  1
  H  H15  1  0.359638  0.191079  0.542765  1
  H  H16  1  0.859610  0.809174  0.292896  1
  H  H17  1  0.859585  0.809172  0.792908  1
  H  H18  1  0.140376  0.809183  0.292891  1
  H  H19  1  0.140371  0.809136  0.792888  1
  O  O20  1  0.499985  0.821733  0.379752  1
  O  O21  1  0.499993  0.821744  0.879743  1
  O  O22  1  0.000020  0.178259  0.129784  1
  O  O23  1  0.000020  0.178309  0.629810  1
  O  O24  1  0.500010  0.611221  0.068144  1
  O  O25  1  0.499981  0.611195  0.568129  1
  O  O26  1  0.000012  0.388634  0.318085  1
  O  O27  1  0.000006  0.388438  0.818460  1
  O  O28  1  0.500009  0.207787  0.103865  1
  O  O29  1  0.499983  0.207792  0.603876  1
  O  O30  1  0.000002  0.792289  0.353934  1
  O  O31  1  0.000030  0.792274  0.853935  1
  O  O32  1  0.721391  0.875827  0.111935  1
  O  O33  1  0.721490  0.875745  0.611858  1
  O  O34  1  0.278501  0.875745  0.111871  1
  O  O35  1  0.278481  0.875743  0.611860  1
  O  O36  1  0.778421  0.123957  0.361883  1
  O  O37  1  0.778303  0.123823  0.861830  1
  O  O38  1  0.221663  0.123960  0.361873  1
  O  O39  1  0.221753  0.123917  0.861856  1
