# generated using pymatgen
data_AlHO2
_symmetry_space_group_name_H-M   'P 1'
_cell_length_a   2.96270900
_cell_length_b   3.73820962
_cell_length_c   6.80357062
_cell_angle_alpha   99.74745661
_cell_angle_beta   101.64447733
_cell_angle_gamma   89.63555061
_symmetry_Int_Tables_number   1
_chemical_formula_structural   AlHO2
_chemical_formula_sum   'Al2 H2 O4'
_cell_volume   72.70467185
_cell_formula_units_Z   2
loop_
 _symmetry_equiv_pos_site_id
 _symmetry_equiv_pos_as_xyz
  1  'x, y, z'
loop_
 _atom_site_type_symbol
 _atom_site_label
 _atom_site_symmetry_multiplicity
 _atom_site_fract_x
 _atom_site_fract_y
 _atom_site_fract_z
 _atom_site_occupancy
  Al  Al0  1  0.629640  0.204554  0.326630  1
  Al  Al1  1  0.300345  0.795744  0.637073  1
  H  H2  1  0.661927  0.311052  0.733395  1
  H  H3  1  0.970198  0.964389  0.972149  1
  O  O4  1  0.382528  0.293017  0.622120  1
  O  O5  1  0.726741  0.734451  0.439857  1
  O  O6  1  0.069049  0.157373  0.189947  1
  O  O7  1  0.896428  0.857764  0.818014  1
