# generated using pymatgen
data_Y5O4F7
_symmetry_space_group_name_H-M   'P 1'
_cell_length_a   8.85616600
_cell_length_b   6.78769700
_cell_length_c   8.22245259
_cell_angle_alpha   71.31372764
_cell_angle_beta   90.00000000
_cell_angle_gamma   90.00000000
_symmetry_Int_Tables_number   1
_chemical_formula_structural   Y5O4F7
_chemical_formula_sum   'Y10 O8 F14'
_cell_volume   468.22131675
_cell_formula_units_Z   2
loop_
 _symmetry_equiv_pos_site_id
 _symmetry_equiv_pos_as_xyz
  1  'x, y, z'
loop_
 _atom_site_type_symbol
 _atom_site_label
 _atom_site_symmetry_multiplicity
 _atom_site_fract_x
 _atom_site_fract_y
 _atom_site_fract_z
 _atom_site_occupancy
  Y  Y0  1  0.781847  0.247882  0.627329  1
  Y  Y1  1  0.782549  0.866632  0.421101  1
  Y  Y2  1  0.149885  0.549726  0.666971  1
  Y  Y3  1  0.516155  0.622369  0.733987  1
  Y  Y4  1  0.577128  0.139132  0.054058  1
  Y  Y5  1  0.483845  0.622369  0.233987  1
  Y  Y6  1  0.422872  0.139132  0.554058  1
  Y  Y7  1  0.850115  0.549726  0.166971  1
  Y  Y8  1  0.217451  0.866632  0.921101  1
  Y  Y9  1  0.218153  0.247882  0.127329  1
  O  O10  1  0.303326  0.453955  0.885136  1
  O  O11  1  0.639558  0.982157  0.603723  1
  O  O12  1  0.571019  0.270620  0.769250  1
  O  O13  1  0.704974  0.834474  0.151278  1
  O  O14  1  0.295026  0.834474  0.651278  1
  O  O15  1  0.428981  0.270620  0.269250  1
  O  O16  1  0.696674  0.453955  0.385136  1
  O  O17  1  0.360442  0.982157  0.103723  1
  F  F18  1  0.968336  0.320749  0.781910  1
  F  F19  1  0.059616  0.004598  0.069400  1
  F  F20  1  0.235982  0.594696  0.159699  1
  F  F21  1  0.222358  0.183681  0.717912  1
  F  F22  1  0.985358  0.655728  0.416427  1
  F  F23  1  0.471756  0.780461  0.930295  1
  F  F24  1  0.343519  0.493142  0.501326  1
  F  F25  1  0.656481  0.493142  0.001326  1
  F  F26  1  0.528244  0.780461  0.430295  1
  F  F27  1  0.777642  0.183681  0.217912  1
  F  F28  1  0.014642  0.655728  0.916427  1
  F  F29  1  0.940384  0.004598  0.569400  1
  F  F30  1  0.764018  0.594696  0.659699  1
  F  F31  1  0.031664  0.320749  0.281910  1
