# generated using pymatgen
data_LiB13C2
_symmetry_space_group_name_H-M   'P 1'
_cell_length_a   7.31724719
_cell_length_b   7.31724719
_cell_length_c   7.31724719
_cell_angle_alpha   134.34749122
_cell_angle_beta   113.32474882
_cell_angle_gamma   84.55153182
_symmetry_Int_Tables_number   1
_chemical_formula_structural   LiB13C2
_chemical_formula_sum   'Li2 B26 C4'
_cell_volume   247.21336621
_cell_formula_units_Z   2
loop_
 _symmetry_equiv_pos_site_id
 _symmetry_equiv_pos_as_xyz
  1  'x, y, z'
loop_
 _atom_site_type_symbol
 _atom_site_label
 _atom_site_symmetry_multiplicity
 _atom_site_fract_x
 _atom_site_fract_y
 _atom_site_fract_z
 _atom_site_occupancy
  Li  Li0  1  0.194489  0.500000  0.694489  1
  Li  Li1  1  0.324513  0.000000  0.324513  1
  B  B2  1  0.408020  0.415908  0.992112  1
  B  B3  1  0.375891  0.567778  0.303720  1
  B  B4  1  0.735942  0.927829  0.303720  1
  B  B5  1  0.130026  0.920700  0.694907  1
  B  B6  1  0.982127  0.654112  0.999925  1
  B  B7  1  0.345813  0.017798  0.999925  1
  B  B8  1  0.130026  0.435119  0.209325  1
  B  B9  1  0.735942  0.432222  0.808113  1
  B  B10  1  0.163531  0.153374  0.679876  1
  B  B11  1  0.097773  0.082422  0.015351  1
  B  B12  1  0.001749  0.175657  0.826091  1
  B  B13  1  0.345813  0.345888  0.328015  1
  B  B14  1  0.774207  0.564881  0.694907  1
  B  B15  1  0.576205  0.584092  0.992112  1
  B  B16  1  0.375891  0.072171  0.808113  1
  B  B17  1  0.867881  0.500000  0.367881  1
  B  B18  1  0.526502  0.516345  0.679876  1
  B  B19  1  0.932929  0.917578  0.015351  1
  B  B20  1  0.856478  0.675415  0.181064  1
  B  B21  1  0.163531  0.483655  0.010157  1
  B  B22  1  0.982127  0.982202  0.328015  1
  B  B23  1  0.650434  0.824343  0.826091  1
  B  B24  1  0.774207  0.079300  0.209325  1
  B  B25  1  0.505649  0.324585  0.181064  1
  B  B26  1  0.642635  0.000000  0.642635  1
  B  B27  1  0.526502  0.846626  0.010157  1
  C  C28  1  0.503817  0.868495  0.635323  1
  C  C29  1  0.766828  0.131505  0.635323  1
  C  C30  1  0.743045  0.367580  0.375465  1
  C  C31  1  0.007885  0.632420  0.375465  1
