# generated using pymatgen
data_Li3ErCl6
_symmetry_space_group_name_H-M   'P 1'
_cell_length_a   11.08729017
_cell_length_b   11.08729017
_cell_length_c   6.11251200
_cell_angle_alpha   90.00000000
_cell_angle_beta   90.00000000
_cell_angle_gamma   120.00000104
_symmetry_Int_Tables_number   1
_chemical_formula_structural   Li3ErCl6
_chemical_formula_sum   'Li9 Er3 Cl18'
_cell_volume   650.73052544
_cell_formula_units_Z   3
loop_
 _symmetry_equiv_pos_site_id
 _symmetry_equiv_pos_as_xyz
  1  'x, y, z'
loop_
 _atom_site_type_symbol
 _atom_site_label
 _atom_site_symmetry_multiplicity
 _atom_site_fract_x
 _atom_site_fract_y
 _atom_site_fract_z
 _atom_site_occupancy
  Li  Li0  1  0.000000  0.699091  0.500000  1
  Li  Li1  1  0.000000  0.654759  0.000000  1
  Li  Li2  1  0.300909  0.300909  0.500000  1
  Li  Li3  1  0.345241  0.345241  0.000000  1
  Li  Li4  1  0.653542  0.653542  0.000000  1
  Li  Li5  1  0.346458  0.000000  0.000000  1
  Li  Li6  1  0.654759  0.000000  0.000000  1
  Li  Li7  1  0.699091  0.000000  0.500000  1
  Li  Li8  1  0.000000  0.346458  0.000000  1
  Er  Er9  1  0.333333  0.666667  0.511282  1
  Er  Er10  1  0.000000  0.000000  0.000000  1
  Er  Er11  1  0.666667  0.333333  0.488718  1
  Cl  Cl12  1  0.117068  0.885853  0.774300  1
  Cl  Cl13  1  0.108243  0.560074  0.755904  1
  Cl  Cl14  1  0.210284  0.771868  0.269104  1
  Cl  Cl15  1  0.228132  0.438416  0.269104  1
  Cl  Cl16  1  0.451831  0.891757  0.755904  1
  Cl  Cl17  1  0.114147  0.231215  0.774300  1
  Cl  Cl18  1  0.561584  0.789716  0.269104  1
  Cl  Cl19  1  0.439926  0.548169  0.755904  1
  Cl  Cl20  1  0.231215  0.114147  0.225700  1
  Cl  Cl21  1  0.768785  0.882932  0.774300  1
  Cl  Cl22  1  0.548169  0.439926  0.244096  1
  Cl  Cl23  1  0.438416  0.228132  0.730896  1
  Cl  Cl24  1  0.882932  0.768785  0.225700  1
  Cl  Cl25  1  0.560074  0.108243  0.244096  1
  Cl  Cl26  1  0.789716  0.561584  0.730896  1
  Cl  Cl27  1  0.771868  0.210284  0.730896  1
  Cl  Cl28  1  0.891757  0.451831  0.244096  1
  Cl  Cl29  1  0.885853  0.117068  0.225700  1
