# generated using pymatgen
data_Rb2SeO4
_symmetry_space_group_name_H-M   'P 1'
_cell_length_a   6.40803454
_cell_length_b   6.40803454
_cell_length_c   8.28008642
_cell_angle_alpha   89.86080081
_cell_angle_beta   89.86080081
_cell_angle_gamma   117.73805584
_symmetry_Int_Tables_number   1
_chemical_formula_structural   Rb2SeO4
_chemical_formula_sum   'Rb4 Se2 O8'
_cell_volume   300.92937759
_cell_formula_units_Z   2
loop_
 _symmetry_equiv_pos_site_id
 _symmetry_equiv_pos_as_xyz
  1  'x, y, z'
loop_
 _atom_site_type_symbol
 _atom_site_label
 _atom_site_symmetry_multiplicity
 _atom_site_fract_x
 _atom_site_fract_y
 _atom_site_fract_z
 _atom_site_occupancy
  Rb  Rb0  1  0.985632  0.986852  0.494424  1
  Rb  Rb1  1  0.986852  0.985632  0.994425  1
  Rb  Rb2  1  0.290414  0.638565  0.248460  1
  Rb  Rb3  1  0.638565  0.290414  0.748460  1
  Se  Se4  1  0.345752  0.668981  0.744141  1
  Se  Se5  1  0.668981  0.345752  0.244141  1
  O  O6  1  0.190506  0.372940  0.730674  1
  O  O7  1  0.634987  0.740246  0.752831  1
  O  O8  1  0.272971  0.768360  0.909781  1
  O  O9  1  0.302823  0.800962  0.582229  1
  O  O10  1  0.800962  0.302823  0.082229  1
  O  O11  1  0.768360  0.272971  0.409781  1
  O  O12  1  0.372940  0.190506  0.230674  1
  O  O13  1  0.740246  0.634987  0.252831  1
