# generated using pymatgen
data_LiBH4
_symmetry_space_group_name_H-M   'P 1'
_cell_length_a   4.07291100
_cell_length_b   4.08036301
_cell_length_c   5.06669019
_cell_angle_alpha   90.21624185
_cell_angle_beta   90.11994749
_cell_angle_gamma   90.00370704
_symmetry_Int_Tables_number   1
_chemical_formula_structural   LiBH4
_chemical_formula_sum   'Li2 B2 H8'
_cell_volume   84.20231377
_cell_formula_units_Z   2
loop_
 _symmetry_equiv_pos_site_id
 _symmetry_equiv_pos_as_xyz
  1  'x, y, z'
loop_
 _atom_site_type_symbol
 _atom_site_label
 _atom_site_symmetry_multiplicity
 _atom_site_fract_x
 _atom_site_fract_y
 _atom_site_fract_z
 _atom_site_occupancy
  Li  Li0  1  0.991668  0.010515  0.000832  1
  Li  Li1  1  0.495239  0.492378  0.501655  1
  B  B2  1  0.501138  0.495693  0.002732  1
  B  B3  1  0.995871  0.003016  0.500112  1
  H  H4  1  0.000815  0.758846  0.639506  1
  H  H5  1  0.239011  0.000428  0.360877  1
  H  H6  1  0.999466  0.252706  0.632939  1
  H  H7  1  0.499693  0.245436  0.872560  1
  H  H8  1  0.254427  0.503064  0.139071  1
  H  H9  1  0.748938  0.501414  0.139010  1
  H  H10  1  0.500927  0.739669  0.862901  1
  H  H11  1  0.743706  0.998129  0.369204  1
