# generated using pymatgen
data_H5NO
_symmetry_space_group_name_H-M   'P 1'
_cell_length_a   4.90212100
_cell_length_b   6.00244700
_cell_length_c   8.76703400
_cell_angle_alpha   90.00000000
_cell_angle_beta   90.00000000
_cell_angle_gamma   90.00000000
_symmetry_Int_Tables_number   1
_chemical_formula_structural   H5NO
_chemical_formula_sum   'H20 N4 O4'
_cell_volume   257.96753374
_cell_formula_units_Z   4
loop_
 _symmetry_equiv_pos_site_id
 _symmetry_equiv_pos_as_xyz
  1  'x, y, z'
loop_
 _atom_site_type_symbol
 _atom_site_label
 _atom_site_symmetry_multiplicity
 _atom_site_fract_x
 _atom_site_fract_y
 _atom_site_fract_z
 _atom_site_occupancy
  H  H0  1  0.874145  0.709525  0.496102  1
  H  H1  1  0.742452  0.698993  0.330782  1
  H  H2  1  0.419200  0.404801  0.371216  1
  H  H3  1  0.742093  0.312713  0.570980  1
  H  H4  1  0.084665  0.412242  0.366891  1
  H  H5  1  0.625855  0.290475  0.996102  1
  H  H6  1  0.415335  0.587758  0.866891  1
  H  H7  1  0.757907  0.687287  0.070980  1
  H  H8  1  0.080800  0.595199  0.871216  1
  H  H9  1  0.757548  0.301007  0.830782  1
  H  H10  1  0.374145  0.790475  0.503898  1
  H  H11  1  0.242452  0.801007  0.669218  1
  H  H12  1  0.919200  0.095199  0.628784  1
  H  H13  1  0.242093  0.187287  0.429020  1
  H  H14  1  0.584665  0.087758  0.633109  1
  H  H15  1  0.125855  0.209525  0.003898  1
  H  H16  1  0.257548  0.198993  0.169218  1
  H  H17  1  0.580800  0.904801  0.128784  1
  H  H18  1  0.915335  0.912242  0.133109  1
  H  H19  1  0.257907  0.812713  0.929020  1
  N  N20  1  0.750297  0.810695  0.151752  1
  N  N21  1  0.749703  0.189305  0.651752  1
  N  N22  1  0.250297  0.689305  0.848248  1
  N  N23  1  0.249703  0.310695  0.348248  1
  O  O24  1  0.725807  0.635336  0.438779  1
  O  O25  1  0.774193  0.364664  0.938779  1
  O  O26  1  0.225807  0.864664  0.561221  1
  O  O27  1  0.274193  0.135336  0.061221  1
