# generated using pymatgen
data_BH5CN2
_symmetry_space_group_name_H-M   'P 1'
_cell_length_a   6.54290500
_cell_length_b   7.06079600
_cell_length_c   7.97970400
_cell_angle_alpha   90.00000000
_cell_angle_beta   90.00000000
_cell_angle_gamma   90.00000000
_symmetry_Int_Tables_number   1
_chemical_formula_structural   BH5CN2
_chemical_formula_sum   'B4 H20 C4 N8'
_cell_volume   368.64730263
_cell_formula_units_Z   4
loop_
 _symmetry_equiv_pos_site_id
 _symmetry_equiv_pos_as_xyz
  1  'x, y, z'
loop_
 _atom_site_type_symbol
 _atom_site_label
 _atom_site_symmetry_multiplicity
 _atom_site_fract_x
 _atom_site_fract_y
 _atom_site_fract_z
 _atom_site_occupancy
  B  B0  1  0.121266  0.656650  0.721493  1
  B  B1  1  0.878734  0.156650  0.278507  1
  B  B2  1  0.621266  0.156650  0.778507  1
  B  B3  1  0.378734  0.656650  0.221493  1
  H  H4  1  0.897407  0.793311  0.877456  1
  H  H5  1  0.102593  0.293311  0.122544  1
  H  H6  1  0.397407  0.293311  0.622544  1
  H  H7  1  0.602593  0.793311  0.377456  1
  H  H8  1  0.134768  0.843211  0.941530  1
  H  H9  1  0.865232  0.343211  0.058470  1
  H  H10  1  0.634768  0.343211  0.558470  1
  H  H11  1  0.365232  0.843211  0.441530  1
  H  H12  1  0.040780  0.952814  0.775260  1
  H  H13  1  0.959220  0.452814  0.224740  1
  H  H14  1  0.540780  0.452814  0.724740  1
  H  H15  1  0.459220  0.952814  0.275260  1
  H  H16  1  0.291508  0.687551  0.667001  1
  H  H17  1  0.708492  0.187551  0.332999  1
  H  H18  1  0.791508  0.187551  0.832999  1
  H  H19  1  0.208492  0.687551  0.167001  1
  H  H20  1  0.118076  0.511096  0.802124  1
  H  H21  1  0.881924  0.011096  0.197876  1
  H  H22  1  0.618076  0.011096  0.697876  1
  H  H23  1  0.381924  0.511096  0.302124  1
  C  C24  1  0.966077  0.637170  0.571631  1
  C  C25  1  0.033923  0.137170  0.428369  1
  C  C26  1  0.466077  0.137170  0.928369  1
  C  C27  1  0.533923  0.637170  0.071631  1
  N  N28  1  0.043622  0.825384  0.837767  1
  N  N29  1  0.956378  0.325384  0.162233  1
  N  N30  1  0.543622  0.325384  0.662233  1
  N  N31  1  0.456378  0.825384  0.337767  1
  N  N32  1  0.850814  0.620812  0.460579  1
  N  N33  1  0.149186  0.120812  0.539421  1
  N  N34  1  0.350814  0.120812  0.039421  1
  N  N35  1  0.649186  0.620812  0.960579  1
