# generated using pymatgen
data_H4CN5Cl
_symmetry_space_group_name_H-M   'P 1'
_cell_length_a   6.02415885
_cell_length_b   6.02415885
_cell_length_c   9.82032944
_cell_angle_alpha   88.81239026
_cell_angle_beta   88.81239026
_cell_angle_gamma   129.13421537
_symmetry_Int_Tables_number   1
_chemical_formula_structural   H4CN5Cl
_chemical_formula_sum   'H8 C2 N10 Cl2'
_cell_volume   276.11456457
_cell_formula_units_Z   2
loop_
 _symmetry_equiv_pos_site_id
 _symmetry_equiv_pos_as_xyz
  1  'x, y, z'
loop_
 _atom_site_type_symbol
 _atom_site_label
 _atom_site_symmetry_multiplicity
 _atom_site_fract_x
 _atom_site_fract_y
 _atom_site_fract_z
 _atom_site_occupancy
  H  H0  1  0.053657  0.318355  0.946017  1
  H  H1  1  0.318355  0.053657  0.446017  1
  H  H2  1  0.080435  0.513380  0.086836  1
  H  H3  1  0.513380  0.080435  0.586836  1
  H  H4  1  0.513377  0.804130  0.196894  1
  H  H5  1  0.804130  0.513377  0.696894  1
  H  H6  1  0.760884  0.733794  0.178616  1
  H  H7  1  0.733794  0.760884  0.678616  1
  C  C8  1  0.410145  0.508621  0.060181  1
  C  C9  1  0.508621  0.410145  0.560181  1
  N  N10  1  0.521596  0.393590  0.993611  1
  N  N11  1  0.393590  0.521596  0.493611  1
  N  N12  1  0.346682  0.165008  0.935688  1
  N  N13  1  0.165008  0.346682  0.435688  1
  N  N14  1  0.213098  0.957301  0.879425  1
  N  N15  1  0.957301  0.213098  0.379425  1
  N  N16  1  0.153557  0.425264  0.033387  1
  N  N17  1  0.425264  0.153557  0.533387  1
  N  N18  1  0.579038  0.702943  0.149066  1
  N  N19  1  0.702943  0.579038  0.649066  1
  Cl  Cl20  1  0.157110  0.841834  0.249778  1
  Cl  Cl21  1  0.841834  0.157110  0.749778  1
