# generated using pymatgen
data_FeOF
_symmetry_space_group_name_H-M   'P 1'
_cell_length_a   4.78896300
_cell_length_b   4.78896300
_cell_length_c   6.02034800
_cell_angle_alpha   90.00000000
_cell_angle_beta   90.00000000
_cell_angle_gamma   89.99897108
_symmetry_Int_Tables_number   1
_chemical_formula_structural   FeOF
_chemical_formula_sum   'Fe4 O4 F4'
_cell_volume   138.07166410
_cell_formula_units_Z   4
loop_
 _symmetry_equiv_pos_site_id
 _symmetry_equiv_pos_as_xyz
  1  'x, y, z'
loop_
 _atom_site_type_symbol
 _atom_site_label
 _atom_site_symmetry_multiplicity
 _atom_site_fract_x
 _atom_site_fract_y
 _atom_site_fract_z
 _atom_site_occupancy
  Fe  Fe0  1  0.458557  0.541443  0.250000  1
  Fe  Fe1  1  0.541443  0.458557  0.750000  1
  Fe  Fe2  1  0.041456  0.041456  0.000000  1
  Fe  Fe3  1  0.958544  0.958544  0.500000  1
  O  O4  1  0.179850  0.820150  0.250000  1
  O  O5  1  0.679848  0.679848  0.500000  1
  O  O6  1  0.820150  0.179850  0.750000  1
  O  O7  1  0.320152  0.320152  0.000000  1
  F  F8  1  0.795757  0.204243  0.250000  1
  F  F9  1  0.295764  0.295764  0.500000  1
  F  F10  1  0.204243  0.795757  0.750000  1
  F  F11  1  0.704236  0.704236  0.000000  1
