# generated using pymatgen
data_MnF2
_symmetry_space_group_name_H-M   'P 1'
_cell_length_a   5.28400300
_cell_length_b   5.28398901
_cell_length_c   5.26041401
_cell_angle_alpha   90.00494453
_cell_angle_beta   90.00171688
_cell_angle_gamma   90.00016261
_symmetry_Int_Tables_number   1
_chemical_formula_structural   MnF2
_chemical_formula_sum   'Mn4 F8'
_cell_volume   146.87398704
_cell_formula_units_Z   4
loop_
 _symmetry_equiv_pos_site_id
 _symmetry_equiv_pos_as_xyz
  1  'x, y, z'
loop_
 _atom_site_type_symbol
 _atom_site_label
 _atom_site_symmetry_multiplicity
 _atom_site_fract_x
 _atom_site_fract_y
 _atom_site_fract_z
 _atom_site_occupancy
  Mn  Mn0  1  0.500000  0.500039  0.999975  1
  Mn  Mn1  1  0.000065  0.000038  0.000001  1
  Mn  Mn2  1  0.999940  0.499981  0.499984  1
  Mn  Mn3  1  0.500012  0.999963  0.500037  1
  F  F4  1  0.276822  0.723186  0.759845  1
  F  F5  1  0.723159  0.276833  0.759876  1
  F  F6  1  0.781938  0.781924  0.730826  1
  F  F7  1  0.218086  0.218110  0.730719  1
  F  F8  1  0.723180  0.723165  0.240191  1
  F  F9  1  0.781906  0.218063  0.269228  1
  F  F10  1  0.218086  0.781900  0.269228  1
  F  F11  1  0.276805  0.276797  0.240091  1
