# generated using pymatgen
data_LiVF6
_symmetry_space_group_name_H-M   'P 1'
_cell_length_a   5.70561119
_cell_length_b   5.70561119
_cell_length_c   4.84209400
_cell_angle_alpha   90.00000000
_cell_angle_beta   90.00000000
_cell_angle_gamma   119.99999060
_symmetry_Int_Tables_number   1
_chemical_formula_structural   LiVF6
_chemical_formula_sum   'Li1 V1 F6'
_cell_volume   136.51118462
_cell_formula_units_Z   1
loop_
 _symmetry_equiv_pos_site_id
 _symmetry_equiv_pos_as_xyz
  1  'x, y, z'
loop_
 _atom_site_type_symbol
 _atom_site_label
 _atom_site_symmetry_multiplicity
 _atom_site_fract_x
 _atom_site_fract_y
 _atom_site_fract_z
 _atom_site_occupancy
  Li  Li0  1  0.666667  0.333333  0.700109  1
  V  V1  1  0.333333  0.666667  0.014503  1
  F  F2  1  0.638638  0.819319  0.217430  1
  F  F3  1  0.180681  0.361362  0.217430  1
  F  F4  1  0.484029  0.515971  0.783552  1
  F  F5  1  0.180681  0.819319  0.217430  1
  F  F6  1  0.484029  0.968057  0.783552  1
  F  F7  1  0.031943  0.515971  0.783552  1
