# generated using pymatgen
data_SmTaO4
_symmetry_space_group_name_H-M   'P 1'
_cell_length_a   7.75196602
_cell_length_b   7.75196602
_cell_length_c   5.55232400
_cell_angle_alpha   90.00000000
_cell_angle_beta   90.00000000
_cell_angle_gamma   150.63959458
_symmetry_Int_Tables_number   1
_chemical_formula_structural   SmTaO4
_chemical_formula_sum   'Sm2 Ta2 O8'
_cell_volume   163.59190650
_cell_formula_units_Z   2
loop_
 _symmetry_equiv_pos_site_id
 _symmetry_equiv_pos_as_xyz
  1  'x, y, z'
loop_
 _atom_site_type_symbol
 _atom_site_label
 _atom_site_symmetry_multiplicity
 _atom_site_fract_x
 _atom_site_fract_y
 _atom_site_fract_z
 _atom_site_occupancy
  Sm  Sm0  1  0.816737  0.183263  0.866993  1
  Sm  Sm1  1  0.183263  0.816737  0.366993  1
  Ta  Ta2  1  0.584865  0.415135  0.809426  1
  Ta  Ta3  1  0.415135  0.584865  0.309426  1
  O  O4  1  0.907383  0.092617  0.267077  1
  O  O5  1  0.700785  0.299215  0.595685  1
  O  O6  1  0.665130  0.334870  0.082158  1
  O  O7  1  0.529466  0.470534  0.463459  1
  O  O8  1  0.470534  0.529466  0.963459  1
  O  O9  1  0.334870  0.665130  0.582158  1
  O  O10  1  0.299215  0.700785  0.095685  1
  O  O11  1  0.092617  0.907383  0.767077  1
