# generated using pymatgen
data_LiV2P4(HO8)2
_symmetry_space_group_name_H-M   'P 1'
_cell_length_a   4.88946073
_cell_length_b   7.93609828
_cell_length_c   14.33169805
_cell_angle_alpha   89.53890274
_cell_angle_beta   85.06040126
_cell_angle_gamma   89.87340058
_symmetry_Int_Tables_number   1
_chemical_formula_structural   LiV2P4(HO8)2
_chemical_formula_sum   'Li2 V4 P8 H4 O32'
_cell_volume   554.03234615
_cell_formula_units_Z   2
loop_
 _symmetry_equiv_pos_site_id
 _symmetry_equiv_pos_as_xyz
  1  'x, y, z'
loop_
 _atom_site_type_symbol
 _atom_site_label
 _atom_site_symmetry_multiplicity
 _atom_site_fract_x
 _atom_site_fract_y
 _atom_site_fract_z
 _atom_site_occupancy
  Li  Li0  1  0.972827  0.866003  0.425813  1
  Li  Li1  1  0.472859  0.866008  0.925826  1
  V  V2  1  0.995087  0.494338  0.502130  1
  V  V3  1  0.745246  0.005993  0.243334  1
  V  V4  1  0.495070  0.494437  0.002132  1
  V  V5  1  0.245176  0.005949  0.743417  1
  P  P6  1  0.991835  0.356873  0.135875  1
  P  P7  1  0.491685  0.356734  0.635819  1
  P  P8  1  0.254273  0.848250  0.116067  1
  P  P9  1  0.754417  0.848155  0.616020  1
  P  P10  1  0.241483  0.154477  0.380118  1
  P  P11  1  0.741477  0.154484  0.880135  1
  P  P12  1  0.511720  0.653336  0.366137  1
  P  P13  1  0.011788  0.653257  0.866101  1
  H  H14  1  0.281357  0.509388  0.256647  1
  H  H15  1  0.781391  0.509404  0.756659  1
  H  H16  1  0.467978  0.010373  0.492580  1
  H  H17  1  0.967871  0.010362  0.992578  1
  O  O18  1  0.725799  0.560268  0.422003  1
  O  O19  1  0.225854  0.560157  0.921966  1
  O  O20  1  0.874371  0.172261  0.163772  1
  O  O21  1  0.374209  0.172191  0.663667  1
  O  O22  1  0.988071  0.842789  0.184289  1
  O  O23  1  0.488044  0.842757  0.684197  1
  O  O24  1  0.042230  0.443985  0.224689  1
  O  O25  1  0.542107  0.443930  0.724654  1
  O  O26  1  0.023125  0.056036  0.329701  1
  O  O27  1  0.523100  0.056089  0.829712  1
  O  O28  1  0.148606  0.329820  0.409092  1
  O  O29  1  0.648681  0.329837  0.909116  1
  O  O30  1  0.215686  0.950283  0.028390  1
  O  O31  1  0.715790  0.950299  0.528360  1
  O  O32  1  0.243756  0.329247  0.064632  1
  O  O33  1  0.743137  0.329223  0.564463  1
  O  O34  1  0.242178  0.675630  0.430461  1
  O  O35  1  0.742250  0.675560  0.930451  1
  O  O36  1  0.278039  0.041084  0.467546  1
  O  O37  1  0.778049  0.041108  0.967578  1
  O  O38  1  0.358973  0.671596  0.092867  1
  O  O39  1  0.859024  0.671419  0.592818  1
  O  O40  1  0.472011  0.939871  0.174334  1
  O  O41  1  0.971984  0.939790  0.674301  1
  O  O42  1  0.470609  0.558822  0.275984  1
  O  O43  1  0.970572  0.558810  0.775931  1
  O  O44  1  0.511173  0.161402  0.314400  1
  O  O45  1  0.011172  0.161365  0.814405  1
  O  O46  1  0.641780  0.829726  0.340231  1
  O  O47  1  0.141818  0.829721  0.840231  1
  O  O48  1  0.764389  0.441343  0.081576  1
  O  O49  1  0.264055  0.441223  0.581493  1
