# generated using pymatgen
data_LiMnF3
_symmetry_space_group_name_H-M   'P 1'
_cell_length_a   6.41693581
_cell_length_b   6.41693581
_cell_length_c   3.24247100
_cell_angle_alpha   90.00000000
_cell_angle_beta   90.00000000
_cell_angle_gamma   107.53874796
_symmetry_Int_Tables_number   1
_chemical_formula_structural   LiMnF3
_chemical_formula_sum   'Li2 Mn2 F6'
_cell_volume   127.30875709
_cell_formula_units_Z   2
loop_
 _symmetry_equiv_pos_site_id
 _symmetry_equiv_pos_as_xyz
  1  'x, y, z'
loop_
 _atom_site_type_symbol
 _atom_site_label
 _atom_site_symmetry_multiplicity
 _atom_site_fract_x
 _atom_site_fract_y
 _atom_site_fract_z
 _atom_site_occupancy
  Li  Li0  1  0.499826  0.500174  0.000000  1
  Li  Li1  1  0.991988  0.008012  0.000000  1
  Mn  Mn2  1  0.000697  0.502943  0.500000  1
  Mn  Mn3  1  0.497057  0.999303  0.500000  1
  F  F4  1  0.192239  0.448765  0.000000  1
  F  F5  1  0.450499  0.193836  0.000000  1
  F  F6  1  0.861455  0.138545  0.500000  1
  F  F7  1  0.137651  0.862349  0.500000  1
  F  F8  1  0.806164  0.549501  0.000000  1
  F  F9  1  0.551235  0.807761  0.000000  1
