# generated using pymatgen
data_TaCrO4
_symmetry_space_group_name_H-M   'P 1'
_cell_length_a   5.62189514
_cell_length_b   5.62191030
_cell_length_c   5.62188136
_cell_angle_alpha   72.80382753
_cell_angle_beta   107.19417824
_cell_angle_gamma   65.87391520
_symmetry_Int_Tables_number   1
_chemical_formula_structural   TaCrO4
_chemical_formula_sum   'Ta2 Cr2 O8'
_cell_volume   136.09829917
_cell_formula_units_Z   2
loop_
 _symmetry_equiv_pos_site_id
 _symmetry_equiv_pos_as_xyz
  1  'x, y, z'
loop_
 _atom_site_type_symbol
 _atom_site_label
 _atom_site_symmetry_multiplicity
 _atom_site_fract_x
 _atom_site_fract_y
 _atom_site_fract_z
 _atom_site_occupancy
  Ta  Ta0  1  0.259919  0.240083  0.499996  1
  Ta  Ta1  1  0.009853  0.990144  0.999999  1
  Cr  Cr2  1  0.749918  0.750078  0.500019  1
  Cr  Cr3  1  0.499926  0.500091  0.999996  1
  O  O4  1  0.556461  0.247793  0.804253  1
  O  O5  1  0.045621  0.757114  0.802732  1
  O  O6  1  0.002199  0.302077  0.695720  1
  O  O7  1  0.492902  0.809815  0.697282  1
  O  O8  1  0.002200  0.693519  0.304277  1
  O  O9  1  0.492900  0.204380  0.302716  1
  O  O10  1  0.947951  0.247793  0.195743  1
  O  O11  1  0.440151  0.757112  0.197266  1
