# generated using pymatgen
data_LiP2WO7
_symmetry_space_group_name_H-M   'P 1'
_cell_length_a   5.46579952
_cell_length_b   5.46579952
_cell_length_c   4.58253873
_cell_angle_alpha   82.18326241
_cell_angle_beta   82.18326241
_cell_angle_gamma   103.72110330
_symmetry_Int_Tables_number   1
_chemical_formula_structural   LiP2WO7
_chemical_formula_sum   'Li1 P2 W1 O7'
_cell_volume   129.73108695
_cell_formula_units_Z   1
loop_
 _symmetry_equiv_pos_site_id
 _symmetry_equiv_pos_as_xyz
  1  'x, y, z'
loop_
 _atom_site_type_symbol
 _atom_site_label
 _atom_site_symmetry_multiplicity
 _atom_site_fract_x
 _atom_site_fract_y
 _atom_site_fract_z
 _atom_site_occupancy
  Li  Li0  1  0.086730  0.913270  0.000000  1
  P  P1  1  0.583970  0.003717  0.414033  1
  P  P2  1  0.996283  0.416030  0.585967  1
  W  W3  1  0.458861  0.541139  0.000000  1
  O  O4  1  0.410327  0.864751  0.712832  1
  O  O5  1  0.450569  0.175902  0.247086  1
  O  O6  1  0.689064  0.827488  0.221379  1
  O  O7  1  0.172512  0.310936  0.778621  1
  O  O8  1  0.135249  0.589673  0.287168  1
  O  O9  1  0.839803  0.160197  0.500000  1
  O  O10  1  0.824098  0.549431  0.752914  1
