# generated using pymatgen
data_GaBiO3
_symmetry_space_group_name_H-M   'P 1'
_cell_length_a   5.64157234
_cell_length_b   5.64157234
_cell_length_c   5.64157261
_cell_angle_alpha   59.33723539
_cell_angle_beta   59.33723539
_cell_angle_gamma   59.33722595
_symmetry_Int_Tables_number   1
_chemical_formula_structural   GaBiO3
_chemical_formula_sum   'Ga2 Bi2 O6'
_cell_volume   125.04979165
_cell_formula_units_Z   2
loop_
 _symmetry_equiv_pos_site_id
 _symmetry_equiv_pos_as_xyz
  1  'x, y, z'
loop_
 _atom_site_type_symbol
 _atom_site_label
 _atom_site_symmetry_multiplicity
 _atom_site_fract_x
 _atom_site_fract_y
 _atom_site_fract_z
 _atom_site_occupancy
  Ga  Ga0  1  0.489056  0.489056  0.489056  1
  Ga  Ga1  1  0.989056  0.989056  0.989056  1
  Bi  Bi2  1  0.213569  0.213569  0.213569  1
  Bi  Bi3  1  0.713569  0.713569  0.713569  1
  O  O4  1  0.273891  0.817614  0.678767  1
  O  O5  1  0.817614  0.678767  0.273891  1
  O  O6  1  0.678767  0.273891  0.817614  1
  O  O7  1  0.317614  0.773891  0.178767  1
  O  O8  1  0.178767  0.317614  0.773891  1
  O  O9  1  0.773891  0.178767  0.317614  1
