# generated using pymatgen
data_Li5Cu(PO4)2
_symmetry_space_group_name_H-M   'P 1'
_cell_length_a   6.21696400
_cell_length_b   4.97488600
_cell_length_c   5.30782536
_cell_angle_alpha   89.64942203
_cell_angle_beta   90.00000000
_cell_angle_gamma   90.00000000
_symmetry_Int_Tables_number   1
_chemical_formula_structural   Li5Cu(PO4)2
_chemical_formula_sum   'Li5 Cu1 P2 O8'
_cell_volume   164.16099702
_cell_formula_units_Z   1
loop_
 _symmetry_equiv_pos_site_id
 _symmetry_equiv_pos_as_xyz
  1  'x, y, z'
loop_
 _atom_site_type_symbol
 _atom_site_label
 _atom_site_symmetry_multiplicity
 _atom_site_fract_x
 _atom_site_fract_y
 _atom_site_fract_z
 _atom_site_occupancy
  Li  Li0  1  0.000000  0.490672  0.844405  1
  Li  Li1  1  0.750988  0.992041  0.673432  1
  Li  Li2  1  0.746136  0.490573  0.326559  1
  Li  Li3  1  0.253864  0.490573  0.326559  1
  Li  Li4  1  0.249012  0.992041  0.673432  1
  Cu  Cu5  1  0.500000  0.993573  0.172107  1
  P  P6  1  0.000000  0.999752  0.174237  1
  P  P7  1  0.500000  0.498629  0.818583  1
  O  O8  1  0.000000  0.898878  0.896861  1
  O  O9  1  0.000000  0.312207  0.180522  1
  O  O10  1  0.798407  0.889290  0.318009  1
  O  O11  1  0.706995  0.390303  0.686952  1
  O  O12  1  0.500000  0.811033  0.800778  1
  O  O13  1  0.500000  0.413436  0.102602  1
  O  O14  1  0.293005  0.390303  0.686952  1
  O  O15  1  0.201593  0.889290  0.318009  1
