# generated using pymatgen
data_LiSnPCO7
_symmetry_space_group_name_H-M   'P 1'
_cell_length_a   6.54830400
_cell_length_b   5.23435000
_cell_length_c   8.95683707
_cell_angle_alpha   86.05729604
_cell_angle_beta   90.00000000
_cell_angle_gamma   90.00000000
_symmetry_Int_Tables_number   1
_chemical_formula_structural   LiSnPCO7
_chemical_formula_sum   'Li2 Sn2 P2 C2 O14'
_cell_volume   306.27899034
_cell_formula_units_Z   2
loop_
 _symmetry_equiv_pos_site_id
 _symmetry_equiv_pos_as_xyz
  1  'x, y, z'
loop_
 _atom_site_type_symbol
 _atom_site_label
 _atom_site_symmetry_multiplicity
 _atom_site_fract_x
 _atom_site_fract_y
 _atom_site_fract_z
 _atom_site_occupancy
  Li  Li0  1  0.468759  0.765169  0.838405  1
  Li  Li1  1  0.968759  0.234831  0.161595  1
  Sn  Sn2  1  0.248275  0.211145  0.657616  1
  Sn  Sn3  1  0.748275  0.788855  0.342384  1
  P  P4  1  0.750988  0.269309  0.571492  1
  P  P5  1  0.250988  0.730691  0.428508  1
  C  C6  1  0.259810  0.272802  0.938347  1
  C  C7  1  0.759810  0.727198  0.061653  1
  O  O8  1  0.729873  0.690618  0.928338  1
  O  O9  1  0.262279  0.042983  0.881211  1
  O  O10  1  0.283320  0.463896  0.830555  1
  O  O11  1  0.937151  0.197427  0.670204  1
  O  O12  1  0.564426  0.170474  0.662549  1
  O  O13  1  0.259347  0.848158  0.583341  1
  O  O14  1  0.737922  0.566164  0.538822  1
  O  O15  1  0.237922  0.433836  0.461178  1
  O  O16  1  0.759347  0.151842  0.416659  1
  O  O17  1  0.064426  0.829526  0.337451  1
  O  O18  1  0.437151  0.802573  0.329796  1
  O  O19  1  0.783320  0.536104  0.169445  1
  O  O20  1  0.762279  0.957017  0.118789  1
  O  O21  1  0.229873  0.309382  0.071662  1
