# generated using pymatgen
data_Li6MnFeP2(CO7)2
_symmetry_space_group_name_H-M   'P 1'
_cell_length_a   8.22895434
_cell_length_b   8.22926908
_cell_length_c   9.43614057
_cell_angle_alpha   74.89680264
_cell_angle_beta   105.09364166
_cell_angle_gamma   75.61647838
_symmetry_Int_Tables_number   1
_chemical_formula_structural   Li6MnFeP2(CO7)2
_chemical_formula_sum   'Li12 Mn2 Fe2 P4 C4 O28'
_cell_volume   560.31361594
_cell_formula_units_Z   2
loop_
 _symmetry_equiv_pos_site_id
 _symmetry_equiv_pos_as_xyz
  1  'x, y, z'
loop_
 _atom_site_type_symbol
 _atom_site_label
 _atom_site_symmetry_multiplicity
 _atom_site_fract_x
 _atom_site_fract_y
 _atom_site_fract_z
 _atom_site_occupancy
  Li  Li0  1  0.578571  0.671374  0.103486  1
  Li  Li1  1  0.078699  0.171479  0.103482  1
  Li  Li2  1  0.919693  0.830280  0.894610  1
  Li  Li3  1  0.419721  0.330363  0.894557  1
  Li  Li4  1  0.280729  0.735578  0.271341  1
  Li  Li5  1  0.780880  0.235622  0.271389  1
  Li  Li6  1  0.514406  0.969103  0.271490  1
  Li  Li7  1  0.014473  0.469214  0.271434  1
  Li  Li8  1  0.988408  0.532548  0.728579  1
  Li  Li9  1  0.488448  0.032528  0.728528  1
  Li  Li10  1  0.217235  0.761530  0.728365  1
  Li  Li11  1  0.717382  0.261480  0.728398  1
  Mn  Mn12  1  0.565332  0.684559  0.662298  1
  Mn  Mn13  1  0.065365  0.184687  0.662318  1
  Fe  Fe14  1  0.435137  0.314893  0.332231  1
  Fe  Fe15  1  0.935022  0.814976  0.332066  1
  P  P16  1  0.697150  0.552802  0.408263  1
  P  P17  1  0.197163  0.052826  0.408244  1
  P  P18  1  0.801089  0.948872  0.590455  1
  P  P19  1  0.301011  0.448939  0.590446  1
  C  C20  1  0.726631  0.023459  0.039079  1
  C  C21  1  0.226586  0.523446  0.039070  1
  C  C22  1  0.775574  0.474486  0.963563  1
  C  C23  1  0.275563  0.974502  0.963540  1
  O  O24  1  0.862323  0.887671  0.062409  1
  O  O25  1  0.362307  0.387691  0.062421  1
  O  O26  1  0.381149  0.868894  0.104086  1
  O  O27  1  0.881250  0.368970  0.104103  1
  O  O28  1  0.699001  0.051157  0.163034  1
  O  O29  1  0.199011  0.551074  0.163069  1
  O  O30  1  0.671925  0.078055  0.427470  1
  O  O31  1  0.171848  0.578131  0.427488  1
  O  O32  1  0.549323  0.700597  0.424433  1
  O  O33  1  0.049382  0.200672  0.424408  1
  O  O34  1  0.947836  0.802121  0.571261  1
  O  O35  1  0.447713  0.302196  0.571197  1
  O  O36  1  0.824169  0.425721  0.572816  1
  O  O37  1  0.324169  0.925726  0.572792  1
  O  O38  1  0.805301  0.444832  0.841064  1
  O  O39  1  0.305291  0.944862  0.841042  1
  O  O40  1  0.120242  0.629767  0.899259  1
  O  O41  1  0.620368  0.129749  0.899253  1
  O  O42  1  0.639776  0.610084  0.939569  1
  O  O43  1  0.139820  0.110156  0.939552  1
  O  O44  1  0.608042  0.454839  0.306444  1
  O  O45  1  0.107988  0.954930  0.306397  1
  O  O46  1  0.795117  0.641976  0.306479  1
  O  O47  1  0.295202  0.141934  0.306481  1
  O  O48  1  0.890437  0.044706  0.694060  1
  O  O49  1  0.390375  0.544763  0.694051  1
  O  O50  1  0.705226  0.859554  0.694079  1
  O  O51  1  0.205139  0.359626  0.694049  1
