# generated using pymatgen
data_ErBiO3
_symmetry_space_group_name_H-M   'P 1'
_cell_length_a   6.13627050
_cell_length_b   6.13627050
_cell_length_c   6.13627022
_cell_angle_alpha   58.52031600
_cell_angle_beta   58.52031600
_cell_angle_gamma   58.52031053
_symmetry_Int_Tables_number   1
_chemical_formula_structural   ErBiO3
_chemical_formula_sum   'Er2 Bi2 O6'
_cell_volume   157.85021467
_cell_formula_units_Z   2
loop_
 _symmetry_equiv_pos_site_id
 _symmetry_equiv_pos_as_xyz
  1  'x, y, z'
loop_
 _atom_site_type_symbol
 _atom_site_label
 _atom_site_symmetry_multiplicity
 _atom_site_fract_x
 _atom_site_fract_y
 _atom_site_fract_z
 _atom_site_occupancy
  Er  Er0  1  0.277327  0.277327  0.277327  1
  Er  Er1  1  0.777327  0.777327  0.777327  1
  Bi  Bi2  1  0.490973  0.490973  0.490973  1
  Bi  Bi3  1  0.990973  0.990973  0.990973  1
  O  O4  1  0.924258  0.141634  0.587401  1
  O  O5  1  0.587401  0.924258  0.141634  1
  O  O6  1  0.141634  0.587401  0.924258  1
  O  O7  1  0.641634  0.424258  0.087401  1
  O  O8  1  0.424258  0.087401  0.641634  1
  O  O9  1  0.087401  0.641634  0.424258  1
