# generated using pymatgen
data_LiMn(PO3)3
_symmetry_space_group_name_H-M   'P 1'
_cell_length_a   6.48034308
_cell_length_b   13.28328403
_cell_length_c   10.44624294
_cell_angle_alpha   89.99660992
_cell_angle_beta   89.97763205
_cell_angle_gamma   95.57023061
_symmetry_Int_Tables_number   1
_chemical_formula_structural   LiMn(PO3)3
_chemical_formula_sum   'Li4 Mn4 P12 O36'
_cell_volume   894.96888074
_cell_formula_units_Z   4
loop_
 _symmetry_equiv_pos_site_id
 _symmetry_equiv_pos_as_xyz
  1  'x, y, z'
loop_
 _atom_site_type_symbol
 _atom_site_label
 _atom_site_symmetry_multiplicity
 _atom_site_fract_x
 _atom_site_fract_y
 _atom_site_fract_z
 _atom_site_occupancy
  Li  Li0  1  0.174010  0.173953  0.999930  1
  Li  Li1  1  0.923914  0.423955  0.499919  1
  Li  Li2  1  0.674013  0.674014  0.000049  1
  Li  Li3  1  0.423878  0.924007  0.500018  1
  Mn  Mn4  1  0.484763  0.485752  0.999969  1
  Mn  Mn5  1  0.235557  0.735616  0.500131  1
  Mn  Mn6  1  0.985596  0.985745  0.999975  1
  Mn  Mn7  1  0.735406  0.235430  0.499894  1
  P  P8  1  0.701256  0.350683  0.785065  1
  P  P9  1  0.451011  0.600678  0.285169  1
  P  P10  1  0.201208  0.850682  0.785165  1
  P  P11  1  0.951182  0.100654  0.285072  1
  P  P12  1  0.781770  0.134509  0.782622  1
  P  P13  1  0.531636  0.384591  0.282639  1
  P  P14  1  0.281715  0.634569  0.782684  1
  P  P15  1  0.031712  0.884541  0.282669  1
  P  P16  1  0.244422  0.241968  0.432159  1
  P  P17  1  0.994256  0.492002  0.932232  1
  P  P18  1  0.744344  0.741991  0.432218  1
  P  P19  1  0.494488  0.991973  0.932267  1
  O  O20  1  0.902407  0.384711  0.873652  1
  O  O21  1  0.652156  0.634691  0.373787  1
  O  O22  1  0.402335  0.884697  0.873789  1
  O  O23  1  0.152277  0.134662  0.373727  1
  O  O24  1  0.663292  0.232529  0.821815  1
  O  O25  1  0.413024  0.482532  0.321965  1
  O  O26  1  0.163180  0.732556  0.821939  1
  O  O27  1  0.913014  0.982527  0.321835  1
  O  O28  1  0.347676  0.295612  0.304303  1
  O  O29  1  0.097697  0.545655  0.804423  1
  O  O30  1  0.847684  0.795606  0.304361  1
  O  O31  1  0.597710  0.045613  0.804391  1
  O  O32  1  0.953444  0.125323  0.877806  1
  O  O33  1  0.703283  0.375373  0.377815  1
  O  O34  1  0.453362  0.625415  0.877869  1
  O  O35  1  0.203239  0.875408  0.377976  1
  O  O36  1  0.015697  0.112930  0.147005  1
  O  O37  1  0.765744  0.362906  0.646998  1
  O  O38  1  0.515501  0.612989  0.147086  1
  O  O39  1  0.265717  0.862916  0.647091  1
  O  O40  1  0.321177  0.051850  0.975160  1
  O  O41  1  0.071123  0.301835  0.475118  1
  O  O42  1  0.820958  0.551873  0.975112  1
  O  O43  1  0.570989  0.801869  0.475055  1
  O  O44  1  0.159559  0.469212  0.024833  1
  O  O45  1  0.909733  0.719275  0.524808  1
  O  O46  1  0.659900  0.969219  0.024817  1
  O  O47  1  0.409891  0.219217  0.524696  1
  O  O48  1  0.515893  0.398215  0.832983  1
  O  O49  1  0.265494  0.648116  0.332987  1
  O  O50  1  0.015762  0.898160  0.832987  1
  O  O51  1  0.765754  0.148182  0.332876  1
  O  O52  1  0.577672  0.385920  0.142242  1
  O  O53  1  0.327782  0.635725  0.642307  1
  O  O54  1  0.077925  0.885742  0.142309  1
  O  O55  1  0.827800  0.135614  0.642235  1
