# generated using pymatgen
data_LiMnP2(HO4)2
_symmetry_space_group_name_H-M   'P 1'
_cell_length_a   7.00523700
_cell_length_b   10.56205101
_cell_length_c   8.04589500
_cell_angle_alpha   89.99705212
_cell_angle_beta   90.00101583
_cell_angle_gamma   89.99691633
_symmetry_Int_Tables_number   1
_chemical_formula_structural   LiMnP2(HO4)2
_chemical_formula_sum   'Li4 Mn4 P8 H8 O32'
_cell_volume   595.31311874
_cell_formula_units_Z   4
loop_
 _symmetry_equiv_pos_site_id
 _symmetry_equiv_pos_as_xyz
  1  'x, y, z'
loop_
 _atom_site_type_symbol
 _atom_site_label
 _atom_site_symmetry_multiplicity
 _atom_site_fract_x
 _atom_site_fract_y
 _atom_site_fract_z
 _atom_site_occupancy
  Li  Li0  1  0.000060  0.333715  0.499995  1
  Li  Li1  1  0.000015  0.833679  0.499975  1
  Li  Li2  1  0.499985  0.416200  0.000031  1
  Li  Li3  1  0.499952  0.916167  0.000067  1
  Mn  Mn4  1  0.999862  0.992094  0.999969  1
  Mn  Mn5  1  0.500044  0.257859  0.500069  1
  Mn  Mn6  1  0.999880  0.492078  0.999995  1
  Mn  Mn7  1  0.500069  0.757911  0.499906  1
  P  P8  1  0.285354  0.009488  0.647882  1
  P  P9  1  0.285360  0.509506  0.647853  1
  P  P10  1  0.714671  0.009502  0.352135  1
  P  P11  1  0.714704  0.509490  0.352168  1
  P  P12  1  0.214636  0.240524  0.147870  1
  P  P13  1  0.214633  0.740522  0.147833  1
  P  P14  1  0.785321  0.240554  0.852097  1
  P  P15  1  0.785292  0.740528  0.852118  1
  H  H16  1  0.491780  0.101158  0.210265  1
  H  H17  1  0.491847  0.601135  0.210249  1
  H  H18  1  0.508247  0.101077  0.789750  1
  H  H19  1  0.508230  0.601161  0.789692  1
  H  H20  1  0.991843  0.148820  0.289755  1
  H  H21  1  0.991897  0.648757  0.289744  1
  H  H22  1  0.008245  0.148841  0.710331  1
  H  H23  1  0.008203  0.648818  0.710326  1
  O  O24  1  0.550858  0.011309  0.215483  1
  O  O25  1  0.550927  0.511302  0.215492  1
  O  O26  1  0.449173  0.011262  0.784554  1
  O  O27  1  0.449135  0.511312  0.784523  1
  O  O28  1  0.050883  0.238669  0.284573  1
  O  O29  1  0.050924  0.738625  0.284556  1
  O  O30  1  0.949170  0.238692  0.715495  1
  O  O31  1  0.949099  0.738667  0.715486  1
  O  O32  1  0.084864  0.012683  0.726068  1
  O  O33  1  0.084831  0.512688  0.726028  1
  O  O34  1  0.915154  0.012648  0.273954  1
  O  O35  1  0.915227  0.512653  0.274001  1
  O  O36  1  0.415159  0.237325  0.225980  1
  O  O37  1  0.415196  0.737360  0.225940  1
  O  O38  1  0.584848  0.237391  0.773895  1
  O  O39  1  0.584801  0.737290  0.773900  1
  O  O40  1  0.691597  0.128475  0.460917  1
  O  O41  1  0.691600  0.628489  0.460907  1
  O  O42  1  0.308480  0.128478  0.539135  1
  O  O43  1  0.308472  0.628477  0.539049  1
  O  O44  1  0.191444  0.121594  0.039027  1
  O  O45  1  0.191543  0.621579  0.039006  1
  O  O46  1  0.808353  0.121607  0.960959  1
  O  O47  1  0.808402  0.621591  0.961000  1
  O  O48  1  0.800258  0.365330  0.952719  1
  O  O49  1  0.800154  0.865307  0.952700  1
  O  O50  1  0.199659  0.365312  0.047266  1
  O  O51  1  0.199586  0.865299  0.047235  1
  O  O52  1  0.699750  0.384764  0.452866  1
  O  O53  1  0.699726  0.884738  0.452804  1
  O  O54  1  0.300306  0.384758  0.547198  1
  O  O55  1  0.300291  0.884740  0.547207  1
