# generated using pymatgen
data_Hf3N2O3
_symmetry_space_group_name_H-M   'P 1'
_cell_length_a   5.62843789
_cell_length_b   5.62843789
_cell_length_c   10.57302330
_cell_angle_alpha   89.70653202
_cell_angle_beta   89.70653202
_cell_angle_gamma   42.16718783
_symmetry_Int_Tables_number   1
_chemical_formula_structural   Hf3N2O3
_chemical_formula_sum   'Hf6 N4 O6'
_cell_volume   224.84467859
_cell_formula_units_Z   2
loop_
 _symmetry_equiv_pos_site_id
 _symmetry_equiv_pos_as_xyz
  1  'x, y, z'
loop_
 _atom_site_type_symbol
 _atom_site_label
 _atom_site_symmetry_multiplicity
 _atom_site_fract_x
 _atom_site_fract_y
 _atom_site_fract_z
 _atom_site_occupancy
  Hf  Hf0  1  0.854538  0.854538  0.565436  1
  Hf  Hf1  1  0.853133  0.853133  0.937276  1
  Hf  Hf2  1  0.806896  0.806896  0.248087  1
  Hf  Hf3  1  0.192460  0.192460  0.756537  1
  Hf  Hf4  1  0.142069  0.142069  0.058531  1
  Hf  Hf5  1  0.138069  0.138069  0.437672  1
  N  N6  1  0.700367  0.700367  0.426629  1
  N  N7  1  0.696879  0.696879  0.080831  1
  N  N8  1  0.762359  0.762359  0.744496  1
  N  N9  1  0.299042  0.299042  0.925635  1
  O  O10  1  0.954594  0.954594  0.117047  1
  O  O11  1  0.956972  0.956972  0.381420  1
  O  O12  1  0.046720  0.046720  0.612621  1
  O  O13  1  0.044046  0.044046  0.884237  1
  O  O14  1  0.306895  0.306895  0.571199  1
  O  O15  1  0.244963  0.244963  0.252347  1
