# generated using pymatgen
data_MnH12N2(Cl2O)2
_symmetry_space_group_name_H-M   'P 1'
_cell_length_a   7.55796721
_cell_length_b   7.55390675
_cell_length_c   8.44323885
_cell_angle_alpha   89.96677174
_cell_angle_beta   89.98402212
_cell_angle_gamma   90.00345052
_symmetry_Int_Tables_number   1
_chemical_formula_structural   MnH12N2(Cl2O)2
_chemical_formula_sum   'Mn2 H24 N4 Cl8 O4'
_cell_volume   482.04280691
_cell_formula_units_Z   2
loop_
 _symmetry_equiv_pos_site_id
 _symmetry_equiv_pos_as_xyz
  1  'x, y, z'
loop_
 _atom_site_type_symbol
 _atom_site_label
 _atom_site_symmetry_multiplicity
 _atom_site_fract_x
 _atom_site_fract_y
 _atom_site_fract_z
 _atom_site_occupancy
  Mn  Mn0  1  0.499639  0.500324  0.500340  1
  Mn  Mn1  1  0.001169  0.000948  0.999644  1
  H  H2  1  0.426037  0.426158  0.168288  1
  H  H3  1  0.926353  0.926257  0.667621  1
  H  H4  1  0.074250  0.074042  0.667316  1
  H  H5  1  0.574063  0.573898  0.167833  1
  H  H6  1  0.926170  0.073993  0.331978  1
  H  H7  1  0.425540  0.573646  0.832861  1
  H  H8  1  0.573498  0.425946  0.832171  1
  H  H9  1  0.074203  0.926235  0.331874  1
  H  H10  1  0.086218  0.570491  0.321331  1
  H  H11  1  0.587476  0.070024  0.821311  1
  H  H12  1  0.429167  0.911862  0.321050  1
  H  H13  1  0.928238  0.413211  0.821098  1
  H  H14  1  0.070337  0.412393  0.178991  1
  H  H15  1  0.571156  0.912476  0.678499  1
  H  H16  1  0.587910  0.928200  0.179139  1
  H  H17  1  0.086666  0.429281  0.678906  1
  H  H18  1  0.570883  0.086289  0.321453  1
  H  H19  1  0.070144  0.587493  0.821127  1
  H  H20  1  0.911865  0.428731  0.321088  1
  H  H21  1  0.413285  0.928031  0.821224  1
  H  H22  1  0.413558  0.069962  0.178482  1
  H  H23  1  0.912463  0.571242  0.678467  1
  H  H24  1  0.928648  0.586850  0.178551  1
  H  H25  1  0.429231  0.086729  0.679198  1
  N  N26  1  0.500391  0.999089  0.250030  1
  N  N27  1  0.999389  0.500350  0.749890  1
  N  N28  1  0.999287  0.499587  0.249989  1
  N  N29  1  0.500302  0.999329  0.750062  1
  Cl  Cl30  1  0.241793  0.241194  0.022036  1
  Cl  Cl31  1  0.740330  0.741250  0.521565  1
  Cl  Cl32  1  0.739721  0.259833  0.478043  1
  Cl  Cl33  1  0.241140  0.759595  0.978029  1
  Cl  Cl34  1  0.760034  0.241011  0.977736  1
  Cl  Cl35  1  0.258609  0.741036  0.477940  1
  Cl  Cl36  1  0.259146  0.260250  0.522840  1
  Cl  Cl37  1  0.760782  0.760256  0.022126  1
  O  O38  1  0.000787  0.000843  0.262693  1
  O  O39  1  0.500167  0.500842  0.763244  1
  O  O40  1  0.499657  0.500619  0.237202  1
  O  O41  1  0.000298  0.000206  0.736737  1
