# generated using pymatgen
data_LiFe2(PO4)2
_symmetry_space_group_name_H-M   'P 1'
_cell_length_a   4.90628034
_cell_length_b   4.90628034
_cell_length_c   6.36554474
_cell_angle_alpha   89.29420544
_cell_angle_beta   89.29420544
_cell_angle_gamma   67.14782099
_symmetry_Int_Tables_number   1
_chemical_formula_structural   LiFe2(PO4)2
_chemical_formula_sum   'Li1 Fe2 P2 O8'
_cell_volume   141.18638284
_cell_formula_units_Z   1
loop_
 _symmetry_equiv_pos_site_id
 _symmetry_equiv_pos_as_xyz
  1  'x, y, z'
loop_
 _atom_site_type_symbol
 _atom_site_label
 _atom_site_symmetry_multiplicity
 _atom_site_fract_x
 _atom_site_fract_y
 _atom_site_fract_z
 _atom_site_occupancy
  Li  Li0  1  0.325496  0.325496  0.739902  1
  Fe  Fe1  1  0.991423  0.991423  0.005454  1
  Fe  Fe2  1  0.993715  0.993715  0.485815  1
  P  P3  1  0.344813  0.344813  0.237195  1
  P  P4  1  0.650878  0.650878  0.747403  1
  O  O5  1  0.233715  0.233715  0.041147  1
  O  O6  1  0.692426  0.219933  0.228432  1
  O  O7  1  0.219933  0.692426  0.228432  1
  O  O8  1  0.246329  0.246329  0.443866  1
  O  O9  1  0.748932  0.748932  0.544662  1
  O  O10  1  0.764051  0.300005  0.758001  1
  O  O11  1  0.300005  0.764051  0.758001  1
  O  O12  1  0.760796  0.760796  0.940406  1
