# generated using pymatgen
data_Li2MnP2HO8
_symmetry_space_group_name_H-M   'P 1'
_cell_length_a   8.32631800
_cell_length_b   4.77164000
_cell_length_c   7.61765078
_cell_angle_alpha   75.57774875
_cell_angle_beta   90.00000000
_cell_angle_gamma   90.00000000
_symmetry_Int_Tables_number   1
_chemical_formula_structural   Li2MnP2HO8
_chemical_formula_sum   'Li4 Mn2 P4 H2 O16'
_cell_volume   293.11314682
_cell_formula_units_Z   2
loop_
 _symmetry_equiv_pos_site_id
 _symmetry_equiv_pos_as_xyz
  1  'x, y, z'
loop_
 _atom_site_type_symbol
 _atom_site_label
 _atom_site_symmetry_multiplicity
 _atom_site_fract_x
 _atom_site_fract_y
 _atom_site_fract_z
 _atom_site_occupancy
  Li  Li0  1  0.633890  0.137274  0.401971  1
  Li  Li1  1  0.133890  0.862726  0.598029  1
  Li  Li2  1  0.863231  0.648157  0.906409  1
  Li  Li3  1  0.363231  0.351843  0.093591  1
  Mn  Mn4  1  0.000052  0.249610  0.246208  1
  Mn  Mn5  1  0.500052  0.750390  0.753792  1
  P  P6  1  0.646134  0.120771  0.012670  1
  P  P7  1  0.146134  0.879229  0.987330  1
  P  P8  1  0.850901  0.623035  0.505382  1
  P  P9  1  0.350901  0.376965  0.494618  1
  H  H10  1  0.489257  0.716511  0.262772  1
  H  H11  1  0.989257  0.283489  0.737228  1
  O  O12  1  0.466252  0.134367  0.593238  1
  O  O13  1  0.810574  0.238903  0.047455  1
  O  O14  1  0.167400  0.104390  0.104175  1
  O  O15  1  0.558225  0.991529  0.192946  1
  O  O16  1  0.966252  0.865633  0.406762  1
  O  O17  1  0.688970  0.736629  0.548654  1
  O  O18  1  0.058225  0.008471  0.807054  1
  O  O19  1  0.667400  0.895610  0.895825  1
  O  O20  1  0.332454  0.609485  0.603504  1
  O  O21  1  0.940025  0.497015  0.692413  1
  O  O22  1  0.310574  0.761097  0.952545  1
  O  O23  1  0.032731  0.633613  0.092341  1
  O  O24  1  0.440025  0.502985  0.307587  1
  O  O25  1  0.832454  0.390515  0.396496  1
  O  O26  1  0.188970  0.263371  0.451346  1
  O  O27  1  0.532731  0.366387  0.907659  1
