# generated using pymatgen
data_Li7V(O2F)2
_symmetry_space_group_name_H-M   'P 1'
_cell_length_a   5.53262605
_cell_length_b   9.91042776
_cell_length_c   10.43265666
_cell_angle_alpha   105.65815364
_cell_angle_beta   91.57916032
_cell_angle_gamma   74.77344644
_symmetry_Int_Tables_number   1
_chemical_formula_structural   Li7V(O2F)2
_chemical_formula_sum   'Li28 V4 O16 F8'
_cell_volume   530.88709720
_cell_formula_units_Z   4
loop_
 _symmetry_equiv_pos_site_id
 _symmetry_equiv_pos_as_xyz
  1  'x, y, z'
loop_
 _atom_site_type_symbol
 _atom_site_label
 _atom_site_symmetry_multiplicity
 _atom_site_fract_x
 _atom_site_fract_y
 _atom_site_fract_z
 _atom_site_occupancy
  Li  Li0  1  0.042230  0.265073  0.937327  1
  Li  Li1  1  0.542179  0.265465  0.437532  1
  Li  Li2  1  0.292299  0.765130  0.187164  1
  Li  Li3  1  0.792001  0.765135  0.687342  1
  Li  Li4  1  0.245559  0.125433  0.729160  1
  Li  Li5  1  0.745699  0.125292  0.229368  1
  Li  Li6  1  0.495679  0.625308  0.978864  1
  Li  Li7  1  0.995551  0.625666  0.479195  1
  Li  Li8  1  0.144276  0.461781  0.905177  1
  Li  Li9  1  0.644187  0.462422  0.405463  1
  Li  Li10  1  0.394146  0.962159  0.155343  1
  Li  Li11  1  0.894080  0.962187  0.655285  1
  Li  Li12  1  0.363003  0.311652  0.652183  1
  Li  Li13  1  0.863180  0.311245  0.151833  1
  Li  Li14  1  0.612639  0.811488  0.901640  1
  Li  Li15  1  0.113305  0.811458  0.401598  1
  Li  Li16  1  0.620845  0.062642  0.845128  1
  Li  Li17  1  0.120875  0.062756  0.345262  1
  Li  Li18  1  0.870886  0.562400  0.095029  1
  Li  Li19  1  0.370340  0.562998  0.595252  1
  Li  Li20  1  0.446881  0.249947  0.071685  1
  Li  Li21  1  0.947276  0.250744  0.571854  1
  Li  Li22  1  0.696719  0.750298  0.321585  1
  Li  Li23  1  0.196538  0.750162  0.821532  1
  Li  Li24  1  0.702861  0.268530  0.809785  1
  Li  Li25  1  0.202601  0.268510  0.309857  1
  Li  Li26  1  0.952579  0.768329  0.059588  1
  Li  Li27  1  0.452190  0.768717  0.559919  1
  V  V28  1  0.508661  0.013150  0.493420  1
  V  V29  1  0.758425  0.513222  0.743570  1
  V  V30  1  0.008853  0.013008  0.993592  1
  V  V31  1  0.258773  0.512813  0.243412  1
  O  O32  1  0.012812  0.321115  0.764407  1
  O  O33  1  0.512988  0.321264  0.264497  1
  O  O34  1  0.262902  0.821224  0.014322  1
  O  O35  1  0.762653  0.821408  0.514293  1
  O  O36  1  0.146030  0.398677  0.073618  1
  O  O37  1  0.645932  0.399348  0.573930  1
  O  O38  1  0.396015  0.898995  0.323401  1
  O  O39  1  0.895926  0.898952  0.823547  1
  O  O40  1  0.583513  0.122251  0.679009  1
  O  O41  1  0.083615  0.122162  0.179075  1
  O  O42  1  0.833661  0.621649  0.928396  1
  O  O43  1  0.333614  0.622232  0.428909  1
  O  O44  1  0.766798  0.196403  0.973297  1
  O  O45  1  0.266880  0.196652  0.473289  1
  O  O46  1  0.016773  0.696293  0.223049  1
  O  O47  1  0.516473  0.696570  0.723206  1
  F  F48  1  0.288312  0.078048  0.900478  1
  F  F49  1  0.788289  0.078334  0.400613  1
  F  F50  1  0.538297  0.577923  0.150215  1
  F  F51  1  0.038159  0.578257  0.650379  1
  F  F52  1  0.461941  0.460825  0.838253  1
  F  F53  1  0.962382  0.461111  0.338335  1
  F  F54  1  0.712268  0.961097  0.088192  1
  F  F55  1  0.212008  0.961296  0.587986  1
