# generated using pymatgen
data_Li4MnO2F3
_symmetry_space_group_name_H-M   'P 1'
_cell_length_a   3.94299602
_cell_length_b   5.13122073
_cell_length_c   19.69239138
_cell_angle_alpha   87.22975212
_cell_angle_beta   89.99147601
_cell_angle_gamma   67.41475593
_symmetry_Int_Tables_number   1
_chemical_formula_structural   Li4MnO2F3
_chemical_formula_sum   'Li16 Mn4 O8 F12'
_cell_volume   367.36538360
_cell_formula_units_Z   4
loop_
 _symmetry_equiv_pos_site_id
 _symmetry_equiv_pos_as_xyz
  1  'x, y, z'
loop_
 _atom_site_type_symbol
 _atom_site_label
 _atom_site_symmetry_multiplicity
 _atom_site_fract_x
 _atom_site_fract_y
 _atom_site_fract_z
 _atom_site_occupancy
  Li  Li0  1  0.398117  0.198801  0.104331  1
  Li  Li1  1  0.898313  0.198568  0.354347  1
  Li  Li2  1  0.398406  0.198672  0.604336  1
  Li  Li3  1  0.898051  0.198726  0.854343  1
  Li  Li4  1  0.697275  0.600519  0.043502  1
  Li  Li5  1  0.197322  0.600578  0.293484  1
  Li  Li6  1  0.697675  0.600311  0.543502  1
  Li  Li7  1  0.197188  0.600610  0.793505  1
  Li  Li8  1  0.805870  0.383386  0.193398  1
  Li  Li9  1  0.306200  0.383042  0.443374  1
  Li  Li10  1  0.805840  0.383398  0.693405  1
  Li  Li11  1  0.305774  0.383297  0.943382  1
  Li  Li12  1  0.114363  0.766365  0.156694  1
  Li  Li13  1  0.614541  0.766171  0.406675  1
  Li  Li14  1  0.114442  0.766276  0.656695  1
  Li  Li15  1  0.614191  0.766363  0.906656  1
  Mn  Mn16  1  0.482976  0.028649  0.748655  1
  Mn  Mn17  1  0.982933  0.028651  0.998638  1
  Mn  Mn18  1  0.483240  0.028656  0.248604  1
  Mn  Mn19  1  0.983359  0.028367  0.498626  1
  O  O20  1  0.498435  0.997225  0.001181  1
  O  O21  1  0.999903  0.996747  0.251080  1
  O  O22  1  0.499195  0.996757  0.501000  1
  O  O23  1  0.999274  0.997019  0.751111  1
  O  O24  1  0.308908  0.377894  0.202648  1
  O  O25  1  0.808831  0.377372  0.452549  1
  O  O26  1  0.308893  0.377962  0.702665  1
  O  O27  1  0.808513  0.377558  0.952518  1
  F  F28  1  0.889228  0.217751  0.099563  1
  F  F29  1  0.389091  0.217616  0.349632  1
  F  F30  1  0.889324  0.217724  0.599553  1
  F  F31  1  0.388701  0.217852  0.849615  1
  F  F32  1  0.176580  0.641718  0.053739  1
  F  F33  1  0.676990  0.642457  0.303757  1
  F  F34  1  0.176609  0.641777  0.553770  1
  F  F35  1  0.676788  0.642415  0.803786  1
  F  F36  1  0.600305  0.796818  0.151533  1
  F  F37  1  0.098087  0.797516  0.401405  1
  F  F38  1  0.600496  0.796751  0.651541  1
  F  F39  1  0.097944  0.797420  0.901377  1
