# generated using pymatgen
data_FePO4
_symmetry_space_group_name_H-M   'P 1'
_cell_length_a   5.35559200
_cell_length_b   7.70573500
_cell_length_c   10.15859000
_cell_angle_alpha   90.00000000
_cell_angle_beta   90.00000000
_cell_angle_gamma   90.00000000
_symmetry_Int_Tables_number   1
_chemical_formula_structural   FePO4
_chemical_formula_sum   'Fe4 P4 O16'
_cell_volume   419.23254187
_cell_formula_units_Z   4
loop_
 _symmetry_equiv_pos_site_id
 _symmetry_equiv_pos_as_xyz
  1  'x, y, z'
loop_
 _atom_site_type_symbol
 _atom_site_label
 _atom_site_symmetry_multiplicity
 _atom_site_fract_x
 _atom_site_fract_y
 _atom_site_fract_z
 _atom_site_occupancy
  Fe  Fe0  1  0.747782  0.802844  0.100168  1
  Fe  Fe1  1  0.247782  0.302844  0.399832  1
  Fe  Fe2  1  0.747782  0.697156  0.600168  1
  Fe  Fe3  1  0.247782  0.197156  0.899832  1
  P  P4  1  0.248021  0.026014  0.178410  1
  P  P5  1  0.748021  0.526014  0.321590  1
  P  P6  1  0.248021  0.473986  0.678410  1
  P  P7  1  0.748021  0.973986  0.821590  1
  O  O8  1  0.205097  0.183368  0.085689  1
  O  O9  1  0.078500  0.871848  0.139902  1
  O  O10  1  0.524755  0.967658  0.169119  1
  O  O11  1  0.691611  0.582936  0.178632  1
  O  O12  1  0.191611  0.082936  0.321368  1
  O  O13  1  0.024755  0.467658  0.330881  1
  O  O14  1  0.578500  0.371848  0.360098  1
  O  O15  1  0.705097  0.683368  0.414311  1
  O  O16  1  0.205097  0.316632  0.585689  1
  O  O17  1  0.078500  0.628152  0.639902  1
  O  O18  1  0.524755  0.532342  0.669119  1
  O  O19  1  0.691611  0.917064  0.678632  1
  O  O20  1  0.191611  0.417064  0.821368  1
  O  O21  1  0.024755  0.032342  0.830881  1
  O  O22  1  0.578500  0.128152  0.860098  1
  O  O23  1  0.705097  0.816632  0.914311  1
