# generated using pymatgen
data_MnSn3(PO4)4
_symmetry_space_group_name_H-M   'P 1'
_cell_length_a   5.14642150
_cell_length_b   21.92839226
_cell_length_c   12.44413404
_cell_angle_alpha   73.52579158
_cell_angle_beta   90.00110844
_cell_angle_gamma   90.50979899
_symmetry_Int_Tables_number   1
_chemical_formula_structural   MnSn3(PO4)4
_chemical_formula_sum   'Mn4 Sn12 P16 O64'
_cell_volume   1346.64455026
_cell_formula_units_Z   4
loop_
 _symmetry_equiv_pos_site_id
 _symmetry_equiv_pos_as_xyz
  1  'x, y, z'
loop_
 _atom_site_type_symbol
 _atom_site_label
 _atom_site_symmetry_multiplicity
 _atom_site_fract_x
 _atom_site_fract_y
 _atom_site_fract_z
 _atom_site_occupancy
  Mn  Mn0  1  0.050722  0.363406  0.693249  1
  Mn  Mn1  1  0.050581  0.863415  0.943239  1
  Mn  Mn2  1  0.050862  0.363412  0.193266  1
  Mn  Mn3  1  0.050745  0.863405  0.443228  1
  Sn  Sn4  1  0.450082  0.105491  0.322337  1
  Sn  Sn5  1  0.450041  0.105495  0.822311  1
  Sn  Sn6  1  0.450030  0.605495  0.572321  1
  Sn  Sn7  1  0.450007  0.605505  0.072322  1
  Sn  Sn8  1  0.550857  0.393346  0.928252  1
  Sn  Sn9  1  0.550738  0.393364  0.428247  1
  Sn  Sn10  1  0.550816  0.893376  0.178232  1
  Sn  Sn11  1  0.550802  0.893380  0.678221  1
  Sn  Sn12  1  0.958298  0.140286  0.054931  1
  Sn  Sn13  1  0.958274  0.140283  0.554903  1
  Sn  Sn14  1  0.958258  0.640290  0.304926  1
  Sn  Sn15  1  0.958404  0.640270  0.804984  1
  P  P16  1  0.114056  0.309269  0.970331  1
  P  P17  1  0.113968  0.309270  0.470344  1
  P  P18  1  0.113984  0.809285  0.220323  1
  P  P19  1  0.113968  0.809294  0.720289  1
  P  P20  1  0.430951  0.041220  0.104414  1
  P  P21  1  0.430917  0.041229  0.604454  1
  P  P22  1  0.430885  0.541234  0.354404  1
  P  P23  1  0.430950  0.541214  0.854450  1
  P  P24  1  0.584072  0.452895  0.148519  1
  P  P25  1  0.584051  0.452886  0.648522  1
  P  P26  1  0.584099  0.952886  0.398512  1
  P  P27  1  0.584001  0.952902  0.898512  1
  P  P28  1  0.870957  0.197667  0.276229  1
  P  P29  1  0.870896  0.197669  0.776163  1
  P  P30  1  0.870929  0.697651  0.526208  1
  P  P31  1  0.870884  0.697668  0.026190  1
  O  O32  1  0.162772  0.239148  0.005400  1
  O  O33  1  0.162595  0.239144  0.505423  1
  O  O34  1  0.162622  0.739159  0.255403  1
  O  O35  1  0.162668  0.739173  0.755364  1
  O  O36  1  0.148466  0.169016  0.290544  1
  O  O37  1  0.148308  0.168992  0.790531  1
  O  O38  1  0.148412  0.668997  0.540531  1
  O  O39  1  0.148340  0.669010  0.040493  1
  O  O40  1  0.292684  0.445601  0.152193  1
  O  O41  1  0.292658  0.445594  0.652220  1
  O  O42  1  0.292668  0.945624  0.402170  1
  O  O43  1  0.292603  0.945612  0.902188  1
  O  O44  1  0.325554  0.471623  0.889188  1
  O  O45  1  0.325472  0.471653  0.389097  1
  O  O46  1  0.325441  0.971649  0.139118  1
  O  O47  1  0.325405  0.971651  0.639166  1
  O  O48  1  0.672100  0.024470  0.362775  1
  O  O49  1  0.671998  0.024472  0.862767  1
  O  O50  1  0.671930  0.524466  0.612755  1
  O  O51  1  0.671905  0.524476  0.112775  1
  O  O52  1  0.723397  0.043744  0.103190  1
  O  O53  1  0.723387  0.043748  0.603182  1
  O  O54  1  0.723356  0.543770  0.353141  1
  O  O55  1  0.723414  0.543751  0.853193  1
  O  O56  1  0.816535  0.322563  0.963689  1
  O  O57  1  0.816485  0.322592  0.463671  1
  O  O58  1  0.816468  0.822590  0.213671  1
  O  O59  1  0.816455  0.822586  0.713645  1
  O  O60  1  0.881190  0.269062  0.240458  1
  O  O61  1  0.881066  0.269065  0.740504  1
  O  O62  1  0.881176  0.769044  0.490520  1
  O  O63  1  0.881025  0.769062  0.990460  1
  O  O64  1  0.256251  0.344729  0.856111  1
  O  O65  1  0.256242  0.344723  0.356128  1
  O  O66  1  0.256180  0.844744  0.106103  1
  O  O67  1  0.256230  0.844753  0.606078  1
  O  O68  1  0.256334  0.344740  0.049076  1
  O  O69  1  0.256250  0.344737  0.549095  1
  O  O70  1  0.256254  0.844751  0.299068  1
  O  O71  1  0.256219  0.844765  0.799048  1
  O  O72  1  0.303565  0.076290  0.987294  1
  O  O73  1  0.303716  0.076316  0.487293  1
  O  O74  1  0.303567  0.576306  0.237265  1
  O  O75  1  0.303657  0.576293  0.737314  1
  O  O76  1  0.303612  0.076300  0.186496  1
  O  O77  1  0.303556  0.076276  0.686538  1
  O  O78  1  0.303577  0.576295  0.436501  1
  O  O79  1  0.303552  0.576261  0.936539  1
  O  O80  1  0.721667  0.418155  0.067681  1
  O  O81  1  0.721596  0.418161  0.567667  1
  O  O82  1  0.721648  0.918153  0.317683  1
  O  O83  1  0.721591  0.918165  0.817669  1
  O  O84  1  0.721665  0.418155  0.264076  1
  O  O85  1  0.721702  0.418149  0.764070  1
  O  O86  1  0.721691  0.918143  0.514051  1
  O  O87  1  0.721631  0.918152  0.014060  1
  O  O88  1  0.702598  0.166320  0.197089  1
  O  O89  1  0.702515  0.166383  0.696938  1
  O  O90  1  0.702541  0.666358  0.446992  1
  O  O91  1  0.702435  0.666359  0.947015  1
  O  O92  1  0.702665  0.166393  0.386732  1
  O  O93  1  0.702498  0.166369  0.886655  1
  O  O94  1  0.702584  0.666350  0.636696  1
  O  O95  1  0.702570  0.666384  0.136705  1
