# generated using pymatgen
data_Li2CrO4
_symmetry_space_group_name_H-M   'P 1'
_cell_length_a   5.06825000
_cell_length_b   5.36152800
_cell_length_c   6.65923300
_cell_angle_alpha   90.00000000
_cell_angle_beta   90.00000000
_cell_angle_gamma   90.00000000
_symmetry_Int_Tables_number   1
_chemical_formula_structural   Li2CrO4
_chemical_formula_sum   'Li4 Cr2 O8'
_cell_volume   180.95509602
_cell_formula_units_Z   2
loop_
 _symmetry_equiv_pos_site_id
 _symmetry_equiv_pos_as_xyz
  1  'x, y, z'
loop_
 _atom_site_type_symbol
 _atom_site_label
 _atom_site_symmetry_multiplicity
 _atom_site_fract_x
 _atom_site_fract_y
 _atom_site_fract_z
 _atom_site_occupancy
  Li  Li0  1  0.992526  0.322041  0.246404  1
  Li  Li1  1  0.492526  0.677959  0.253596  1
  Li  Li2  1  0.492526  0.677959  0.746404  1
  Li  Li3  1  0.992526  0.322041  0.753596  1
  Cr  Cr4  1  0.001706  0.821880  0.000000  1
  Cr  Cr5  1  0.501706  0.178120  0.500000  1
  O  O6  1  0.915890  0.121106  0.000000  1
  O  O7  1  0.328594  0.796101  0.000000  1
  O  O8  1  0.884330  0.678331  0.203248  1
  O  O9  1  0.384330  0.321669  0.296752  1
  O  O10  1  0.828594  0.203899  0.500000  1
  O  O11  1  0.415890  0.878894  0.500000  1
  O  O12  1  0.384330  0.321669  0.703248  1
  O  O13  1  0.884330  0.678331  0.796752  1
