# generated using pymatgen
data_LiFePO4
_symmetry_space_group_name_H-M   'P 1'
_cell_length_a   4.94459929
_cell_length_b   7.28895102
_cell_length_c   9.93482744
_cell_angle_alpha   89.99529204
_cell_angle_beta   89.47886091
_cell_angle_gamma   89.99408773
_symmetry_Int_Tables_number   1
_chemical_formula_structural   LiFePO4
_chemical_formula_sum   'Li4 Fe4 P4 O16'
_cell_volume   358.04572577
_cell_formula_units_Z   4
loop_
 _symmetry_equiv_pos_site_id
 _symmetry_equiv_pos_as_xyz
  1  'x, y, z'
loop_
 _atom_site_type_symbol
 _atom_site_label
 _atom_site_symmetry_multiplicity
 _atom_site_fract_x
 _atom_site_fract_y
 _atom_site_fract_z
 _atom_site_occupancy
  Li  Li0  1  0.500117  0.000581  0.250029  1
  Li  Li1  1  0.499772  0.000722  0.750020  1
  Li  Li2  1  0.999931  0.500423  0.499944  1
  Li  Li3  1  0.000093  0.500561  0.000005  1
  Fe  Fe4  1  0.999984  0.999988  0.500222  1
  Fe  Fe5  1  0.500298  0.500668  0.249840  1
  Fe  Fe6  1  0.000109  0.000325  0.000133  1
  Fe  Fe7  1  0.499935  0.500650  0.749905  1
  P  P8  1  0.499939  0.249774  0.499875  1
  P  P9  1  0.500165  0.249652  0.000016  1
  P  P10  1  0.999688  0.749728  0.750036  1
  P  P11  1  0.000181  0.749811  0.250048  1
  O  O12  1  0.317727  0.128151  0.092352  1
  O  O13  1  0.317553  0.128048  0.592053  1
  O  O14  1  0.817905  0.628089  0.342259  1
  O  O15  1  0.817602  0.628195  0.842491  1
  O  O16  1  0.317127  0.371686  0.409679  1
  O  O17  1  0.317096  0.371548  0.909902  1
  O  O18  1  0.816024  0.871381  0.660011  1
  O  O19  1  0.816982  0.871536  0.159884  1
  O  O20  1  0.682325  0.127785  0.407907  1
  O  O21  1  0.682392  0.128048  0.907665  1
  O  O22  1  0.182066  0.628352  0.657569  1
  O  O23  1  0.182364  0.628200  0.157716  1
  O  O24  1  0.682798  0.371568  0.590147  1
  O  O25  1  0.683457  0.371407  0.090116  1
  O  O26  1  0.182984  0.871561  0.840024  1
  O  O27  1  0.183390  0.871559  0.340152  1
