# generated using pymatgen
data_Li5CrO5
_symmetry_space_group_name_H-M   'P 1'
_cell_length_a   4.10551602
_cell_length_b   5.13801849
_cell_length_c   21.59670437
_cell_angle_alpha   95.16176717
_cell_angle_beta   89.99907092
_cell_angle_gamma   66.44921603
_symmetry_Int_Tables_number   1
_chemical_formula_structural   Li5CrO5
_chemical_formula_sum   'Li20 Cr4 O20'
_cell_volume   415.60341096
_cell_formula_units_Z   4
loop_
 _symmetry_equiv_pos_site_id
 _symmetry_equiv_pos_as_xyz
  1  'x, y, z'
loop_
 _atom_site_type_symbol
 _atom_site_label
 _atom_site_symmetry_multiplicity
 _atom_site_fract_x
 _atom_site_fract_y
 _atom_site_fract_z
 _atom_site_occupancy
  Li  Li0  1  0.883802  0.268512  0.128549  1
  Li  Li1  1  0.383670  0.268001  0.628559  1
  Li  Li2  1  0.133622  0.768730  0.878562  1
  Li  Li3  1  0.633785  0.768083  0.378568  1
  Li  Li4  1  0.464622  0.067915  0.218924  1
  Li  Li5  1  0.964756  0.067859  0.718877  1
  Li  Li6  1  0.714661  0.568182  0.968908  1
  Li  Li7  1  0.214544  0.567309  0.468931  1
  Li  Li8  1  0.264319  0.469049  0.038150  1
  Li  Li9  1  0.764154  0.468277  0.538184  1
  Li  Li10  1  0.514342  0.968934  0.788155  1
  Li  Li11  1  0.014209  0.968845  0.288172  1
  Li  Li12  1  0.611513  0.769594  0.088070  1
  Li  Li13  1  0.111448  0.768896  0.588091  1
  Li  Li14  1  0.861548  0.269542  0.838044  1
  Li  Li15  1  0.361450  0.269226  0.338110  1
  Li  Li16  1  0.112460  0.767428  0.169024  1
  Li  Li17  1  0.612501  0.767169  0.669058  1
  Li  Li18  1  0.362484  0.267627  0.919012  1
  Li  Li19  1  0.862398  0.266852  0.419042  1
  Cr  Cr20  1  0.419926  0.017708  0.503571  1
  Cr  Cr21  1  0.171100  0.518474  0.753593  1
  Cr  Cr22  1  0.920155  0.018603  0.003542  1
  Cr  Cr23  1  0.670204  0.518375  0.253574  1
  O  O24  1  0.510504  0.018639  0.003594  1
  O  O25  1  0.010231  0.017762  0.503560  1
  O  O26  1  0.761769  0.518436  0.753580  1
  O  O27  1  0.260874  0.518392  0.253562  1
  O  O28  1  0.933394  0.155742  0.211939  1
  O  O29  1  0.433944  0.155604  0.711941  1
  O  O30  1  0.183369  0.656063  0.961967  1
  O  O31  1  0.683158  0.655233  0.461974  1
  O  O32  1  0.820875  0.381236  0.045138  1
  O  O33  1  0.320558  0.380433  0.545142  1
  O  O34  1  0.071177  0.881263  0.795145  1
  O  O35  1  0.570864  0.880955  0.295152  1
  O  O36  1  0.075234  0.866205  0.080621  1
  O  O37  1  0.575064  0.865472  0.580623  1
  O  O38  1  0.325707  0.366016  0.830667  1
  O  O39  1  0.825190  0.365836  0.330643  1
  O  O40  1  0.672714  0.670823  0.176470  1
  O  O41  1  0.173180  0.670761  0.676450  1
  O  O42  1  0.922836  0.170983  0.926502  1
  O  O43  1  0.422642  0.170186  0.426508  1
