# generated using pymatgen
data_Cr4OF11
_symmetry_space_group_name_H-M   'P 1'
_cell_length_a   5.10184700
_cell_length_b   7.30022652
_cell_length_c   5.37208209
_cell_angle_alpha   94.22211716
_cell_angle_beta   89.99997881
_cell_angle_gamma   89.99995449
_symmetry_Int_Tables_number   1
_chemical_formula_structural   Cr4OF11
_chemical_formula_sum   'Cr4 O1 F11'
_cell_volume   199.53826277
_cell_formula_units_Z   1
loop_
 _symmetry_equiv_pos_site_id
 _symmetry_equiv_pos_as_xyz
  1  'x, y, z'
loop_
 _atom_site_type_symbol
 _atom_site_label
 _atom_site_symmetry_multiplicity
 _atom_site_fract_x
 _atom_site_fract_y
 _atom_site_fract_z
 _atom_site_occupancy
  Cr  Cr0  1  0.998732  0.499740  0.999692  1
  Cr  Cr1  1  0.998732  0.000263  0.000303  1
  Cr  Cr2  1  0.502342  0.510481  0.499957  1
  Cr  Cr3  1  0.502342  0.989518  0.500043  1
  O  O4  1  0.620355  0.749998  0.499999  1
  F  F5  1  0.870782  0.750002  0.000001  1
  F  F6  1  0.392462  0.250002  0.499999  1
  F  F7  1  0.124402  0.250003  0.000000  1
  F  F8  1  0.807672  0.058774  0.308557  1
  F  F9  1  0.807669  0.441225  0.691442  1
  F  F10  1  0.690120  0.440338  0.191085  1
  F  F11  1  0.690127  0.059660  0.808919  1
  F  F12  1  0.307681  0.938920  0.191177  1
  F  F13  1  0.307674  0.561077  0.808820  1
  F  F14  1  0.189456  0.560319  0.309253  1
  F  F15  1  0.189455  0.939679  0.690751  1
