# generated using pymatgen
data_LiSi2NiO6
_symmetry_space_group_name_H-M   'P 1'
_cell_length_a   5.34327700
_cell_length_b   12.32280669
_cell_length_c   9.30561000
_cell_angle_alpha   67.81633998
_cell_angle_beta   90.00000000
_cell_angle_gamma   77.47859434
_symmetry_Int_Tables_number   1
_chemical_formula_structural   LiSi2NiO6
_chemical_formula_sum   'Li4 Si8 Ni4 O24'
_cell_volume   551.59507525
_cell_formula_units_Z   4
loop_
 _symmetry_equiv_pos_site_id
 _symmetry_equiv_pos_as_xyz
  1  'x, y, z'
loop_
 _atom_site_type_symbol
 _atom_site_label
 _atom_site_symmetry_multiplicity
 _atom_site_fract_x
 _atom_site_fract_y
 _atom_site_fract_z
 _atom_site_occupancy
  Li  Li0  1  0.125000  0.750000  0.625000  1
  Li  Li1  1  0.875000  0.250000  0.375000  1
  Li  Li2  1  0.625000  0.750000  0.125000  1
  Li  Li3  1  0.375000  0.250000  0.875000  1
  Si  Si4  1  0.958482  0.583036  0.458482  1
  Si  Si5  1  0.708482  0.083036  0.208482  1
  Si  Si6  1  0.458482  0.583036  0.958482  1
  Si  Si7  1  0.208482  0.083036  0.708482  1
  Si  Si8  1  0.291518  0.916964  0.291518  1
  Si  Si9  1  0.041518  0.416964  0.041518  1
  Si  Si10  1  0.791518  0.916964  0.791518  1
  Si  Si11  1  0.541518  0.416964  0.541518  1
  Ni  Ni12  1  0.375000  0.250000  0.375000  1
  Ni  Ni13  1  0.125000  0.750000  0.125000  1
  Ni  Ni14  1  0.625000  0.750000  0.625000  1
  Ni  Ni15  1  0.875000  0.250000  0.875000  1
  O  O16  1  0.750000  0.500000  0.487085  1
  O  O17  1  0.500000  0.000000  0.237085  1
  O  O18  1  0.250000  0.500000  0.987085  1
  O  O19  1  0.000000  0.000000  0.737085  1
  O  O20  1  0.250000  0.500000  0.512915  1
  O  O21  1  0.000000  0.000000  0.262915  1
  O  O22  1  0.750000  0.500000  0.012915  1
  O  O23  1  0.500000  0.000000  0.762915  1
  O  O24  1  0.902718  0.666416  0.561379  1
  O  O25  1  0.652718  0.166416  0.311379  1
  O  O26  1  0.402718  0.666416  0.061379  1
  O  O27  1  0.152718  0.166416  0.811379  1
  O  O28  1  0.347282  0.833584  0.477795  1
  O  O29  1  0.097282  0.333584  0.227795  1
  O  O30  1  0.847282  0.833584  0.977795  1
  O  O31  1  0.597282  0.333584  0.727795  1
  O  O32  1  0.319134  0.833584  0.188621  1
  O  O33  1  0.069134  0.333584  0.938621  1
  O  O34  1  0.819134  0.833584  0.688621  1
  O  O35  1  0.569134  0.333584  0.438621  1
  O  O36  1  0.930866  0.666416  0.272205  1
  O  O37  1  0.680866  0.166416  0.022205  1
  O  O38  1  0.430866  0.666416  0.772205  1
  O  O39  1  0.180866  0.166416  0.522205  1
