# generated using pymatgen
data_LiMnAlO4
_symmetry_space_group_name_H-M   'P 1'
_cell_length_a   5.74843800
_cell_length_b   5.74844200
_cell_length_c   8.05224200
_cell_angle_alpha   90.00027474
_cell_angle_beta   89.99971815
_cell_angle_gamma   90.00000000
_symmetry_Int_Tables_number   1
_chemical_formula_structural   LiMnAlO4
_chemical_formula_sum   'Li4 Mn4 Al4 O16'
_cell_volume   266.08281350
_cell_formula_units_Z   4
loop_
 _symmetry_equiv_pos_site_id
 _symmetry_equiv_pos_as_xyz
  1  'x, y, z'
loop_
 _atom_site_type_symbol
 _atom_site_label
 _atom_site_symmetry_multiplicity
 _atom_site_fract_x
 _atom_site_fract_y
 _atom_site_fract_z
 _atom_site_occupancy
  Li  Li0  1  0.000000  0.227514  0.999999  1
  Li  Li1  1  0.000000  0.772488  0.500000  1
  Li  Li2  1  0.227514  0.000000  0.250000  1
  Li  Li3  1  0.772488  0.000000  0.749999  1
  Mn  Mn4  1  0.233788  0.500002  0.249998  1
  Mn  Mn5  1  0.499998  0.233788  0.000003  1
  Mn  Mn6  1  0.500000  0.766210  0.500000  1
  Mn  Mn7  1  0.766208  0.499999  0.750003  1
  Al  Al8  1  0.256204  0.256205  0.625000  1
  Al  Al9  1  0.256207  0.743793  0.874997  1
  Al  Al10  1  0.743794  0.256207  0.375002  1
  Al  Al11  1  0.743792  0.743791  0.125000  1
  O  O12  1  0.007335  0.267630  0.259973  1
  O  O13  1  0.007335  0.732371  0.240027  1
  O  O14  1  0.267630  0.007335  0.990027  1
  O  O15  1  0.267631  0.992666  0.509974  1
  O  O16  1  0.263921  0.488488  0.010465  1
  O  O17  1  0.263922  0.511512  0.489535  1
  O  O18  1  0.488488  0.263921  0.239535  1
  O  O19  1  0.488489  0.736079  0.260465  1
  O  O20  1  0.511512  0.263922  0.760465  1
  O  O21  1  0.511512  0.736077  0.739535  1
  O  O22  1  0.736078  0.511511  0.510465  1
  O  O23  1  0.736079  0.488489  0.989535  1
  O  O24  1  0.732370  0.992667  0.490026  1
  O  O25  1  0.732370  0.007336  0.009973  1
  O  O26  1  0.992667  0.267630  0.740026  1
  O  O27  1  0.992667  0.732370  0.759974  1
