# generated using pymatgen
data_VOF3
_symmetry_space_group_name_H-M   'P 1'
_cell_length_a   5.64757617
_cell_length_b   5.64757617
_cell_length_c   4.96826435
_cell_angle_alpha   88.46769489
_cell_angle_beta   88.46769489
_cell_angle_gamma   63.01538688
_symmetry_Int_Tables_number   1
_chemical_formula_structural   VOF3
_chemical_formula_sum   'V2 O2 F6'
_cell_volume   141.14173687
_cell_formula_units_Z   2
loop_
 _symmetry_equiv_pos_site_id
 _symmetry_equiv_pos_as_xyz
  1  'x, y, z'
loop_
 _atom_site_type_symbol
 _atom_site_label
 _atom_site_symmetry_multiplicity
 _atom_site_fract_x
 _atom_site_fract_y
 _atom_site_fract_z
 _atom_site_occupancy
  V  V0  1  0.331158  0.668842  0.500000  1
  V  V1  1  0.636808  0.363192  0.000000  1
  O  O2  1  0.506176  0.674174  0.793278  1
  O  O3  1  0.325826  0.493824  0.206722  1
  F  F4  1  0.018803  0.739055  0.632900  1
  F  F5  1  0.719324  0.510055  0.310037  1
  F  F6  1  0.967758  0.277397  0.897127  1
  F  F7  1  0.489945  0.280676  0.689963  1
  F  F8  1  0.722603  0.032242  0.102873  1
  F  F9  1  0.260945  0.981197  0.367100  1
