# generated using pymatgen
data_LiMnNbO4
_symmetry_space_group_name_H-M   'P 1'
_cell_length_a   6.28016200
_cell_length_b   6.28819800
_cell_length_c   8.63705800
_cell_angle_alpha   89.99903282
_cell_angle_beta   89.99966994
_cell_angle_gamma   90.00012764
_symmetry_Int_Tables_number   1
_chemical_formula_structural   LiMnNbO4
_chemical_formula_sum   'Li4 Mn4 Nb4 O16'
_cell_volume   341.08521212
_cell_formula_units_Z   4
loop_
 _symmetry_equiv_pos_site_id
 _symmetry_equiv_pos_as_xyz
  1  'x, y, z'
loop_
 _atom_site_type_symbol
 _atom_site_label
 _atom_site_symmetry_multiplicity
 _atom_site_fract_x
 _atom_site_fract_y
 _atom_site_fract_z
 _atom_site_occupancy
  Li  Li0  1  0.000004  0.222590  0.999999  1
  Li  Li1  1  0.000005  0.777413  0.499998  1
  Li  Li2  1  0.222530  0.000002  0.249998  1
  Li  Li3  1  0.777480  0.000001  0.749998  1
  Mn  Mn4  1  0.743966  0.255717  0.375761  1
  Mn  Mn5  1  0.743969  0.744297  0.124239  1
  Mn  Mn6  1  0.256020  0.255679  0.624290  1
  Mn  Mn7  1  0.256002  0.744293  0.875732  1
  Nb  Nb8  1  0.219149  0.500000  0.250004  1
  Nb  Nb9  1  0.499999  0.219353  0.999994  1
  Nb  Nb10  1  0.499995  0.780648  0.500006  1
  Nb  Nb11  1  0.780851  0.500001  0.749998  1
  O  O12  1  0.026983  0.265590  0.253293  1
  O  O13  1  0.026987  0.734413  0.246704  1
  O  O14  1  0.265437  0.027266  0.996784  1
  O  O15  1  0.265435  0.972734  0.503213  1
  O  O16  1  0.734572  0.027280  0.003195  1
  O  O17  1  0.734577  0.972721  0.496802  1
  O  O18  1  0.973021  0.265599  0.746707  1
  O  O19  1  0.973019  0.734407  0.753290  1
  O  O20  1  0.268789  0.482112  0.019534  1
  O  O21  1  0.268791  0.517880  0.480467  1
  O  O22  1  0.482316  0.268792  0.230521  1
  O  O23  1  0.482315  0.731214  0.269475  1
  O  O24  1  0.517685  0.268791  0.769465  1
  O  O25  1  0.517678  0.731207  0.730534  1
  O  O26  1  0.731212  0.517900  0.519544  1
  O  O27  1  0.731214  0.482100  0.980453  1
