# generated using pymatgen
data_Li4TiMn(WO6)2
_symmetry_space_group_name_H-M   'P 1'
_cell_length_a   5.11102819
_cell_length_b   9.48763838
_cell_length_c   8.85196425
_cell_angle_alpha   108.09820047
_cell_angle_beta   90.02881010
_cell_angle_gamma   89.97116815
_symmetry_Int_Tables_number   1
_chemical_formula_structural   Li4TiMn(WO6)2
_chemical_formula_sum   'Li8 Ti2 Mn2 W4 O24'
_cell_volume   408.00899156
_cell_formula_units_Z   2
loop_
 _symmetry_equiv_pos_site_id
 _symmetry_equiv_pos_as_xyz
  1  'x, y, z'
loop_
 _atom_site_type_symbol
 _atom_site_label
 _atom_site_symmetry_multiplicity
 _atom_site_fract_x
 _atom_site_fract_y
 _atom_site_fract_z
 _atom_site_occupancy
  Li  Li0  1  0.000975  0.430108  0.140669  1
  Li  Li1  1  0.000980  0.930138  0.640700  1
  Li  Li2  1  0.499369  0.932923  0.147367  1
  Li  Li3  1  0.499372  0.432912  0.647382  1
  Li  Li4  1  0.999957  0.173624  0.392982  1
  Li  Li5  1  0.999954  0.673621  0.892985  1
  Li  Li6  1  0.500227  0.679467  0.391277  1
  Li  Li7  1  0.500202  0.179495  0.891243  1
  Ti  Ti8  1  0.002530  0.014320  0.005207  1
  Ti  Ti9  1  0.002501  0.514308  0.505193  1
  Mn  Mn10  1  0.498705  0.500544  0.000089  1
  Mn  Mn11  1  0.498828  0.000509  0.500082  1
  W  W12  1  0.001107  0.752072  0.247030  1
  W  W13  1  0.001091  0.252060  0.747021  1
  W  W14  1  0.498948  0.755824  0.756054  1
  W  W15  1  0.498974  0.255822  0.256029  1
  O  O16  1  0.299973  0.611177  0.179964  1
  O  O17  1  0.299825  0.111058  0.679903  1
  O  O18  1  0.119820  0.861704  0.117142  1
  O  O19  1  0.119831  0.361702  0.617144  1
  O  O20  1  0.319643  0.112539  0.064155  1
  O  O21  1  0.319568  0.612551  0.564173  1
  O  O22  1  0.198874  0.862774  0.430973  1
  O  O23  1  0.198881  0.362776  0.930968  1
  O  O24  1  0.805447  0.117016  0.183603  1
  O  O25  1  0.805427  0.617003  0.683596  1
  O  O26  1  0.381701  0.111771  0.366124  1
  O  O27  1  0.381539  0.611800  0.866121  1
  O  O28  1  0.617053  0.365481  0.119068  1
  O  O29  1  0.617008  0.865486  0.619116  1
  O  O30  1  0.184568  0.361386  0.310418  1
  O  O31  1  0.184559  0.861388  0.810419  1
  O  O32  1  0.807926  0.616367  0.065403  1
  O  O33  1  0.807806  0.116448  0.565343  1
  O  O34  1  0.691887  0.364746  0.433265  1
  O  O35  1  0.691890  0.864738  0.933267  1
  O  O36  1  0.882859  0.616346  0.368215  1
  O  O37  1  0.882893  0.116393  0.868252  1
  O  O38  1  0.688645  0.866607  0.316628  1
  O  O39  1  0.688657  0.366598  0.816628  1
