# generated using pymatgen
data_Ta2CrNO5
_symmetry_space_group_name_H-M   'P 1'
_cell_length_a   4.76012200
_cell_length_b   9.25930751
_cell_length_c   9.53085918
_cell_angle_alpha   90.40384299
_cell_angle_beta   89.99988580
_cell_angle_gamma   89.99995139
_symmetry_Int_Tables_number   1
_chemical_formula_structural   Ta2CrNO5
_chemical_formula_sum   'Ta8 Cr4 N4 O20'
_cell_volume   420.06631408
_cell_formula_units_Z   4
loop_
 _symmetry_equiv_pos_site_id
 _symmetry_equiv_pos_as_xyz
  1  'x, y, z'
loop_
 _atom_site_type_symbol
 _atom_site_label
 _atom_site_symmetry_multiplicity
 _atom_site_fract_x
 _atom_site_fract_y
 _atom_site_fract_z
 _atom_site_occupancy
  Ta  Ta0  1  0.994687  0.339147  0.001504  1
  Ta  Ta1  1  0.994690  0.339154  0.501513  1
  Ta  Ta2  1  0.494685  0.160844  0.248492  1
  Ta  Ta3  1  0.494686  0.160854  0.748493  1
  Ta  Ta4  1  0.999288  0.683109  0.491138  1
  Ta  Ta5  1  0.999286  0.683109  0.991153  1
  Ta  Ta6  1  0.499290  0.816881  0.258858  1
  Ta  Ta7  1  0.499286  0.816901  0.758853  1
  Cr  Cr8  1  0.000303  0.002821  0.999119  1
  Cr  Cr9  1  0.500317  0.497186  0.750888  1
  Cr  Cr10  1  0.000350  0.002841  0.499104  1
  Cr  Cr11  1  0.500358  0.497155  0.250888  1
  N  N12  1  0.700536  0.663374  0.348212  1
  N  N13  1  0.700539  0.663390  0.848219  1
  N  N14  1  0.200532  0.836620  0.401784  1
  N  N15  1  0.200528  0.836615  0.901785  1
  O  O16  1  0.804935  0.492784  0.100404  1
  O  O17  1  0.804932  0.492786  0.600398  1
  O  O18  1  0.304929  0.007214  0.149603  1
  O  O19  1  0.304933  0.007214  0.649595  1
  O  O20  1  0.805756  0.835527  0.098970  1
  O  O21  1  0.805764  0.835519  0.598960  1
  O  O22  1  0.305770  0.664476  0.151033  1
  O  O23  1  0.305775  0.664481  0.651030  1
  O  O24  1  0.801433  0.173051  0.098775  1
  O  O25  1  0.801437  0.173053  0.598771  1
  O  O26  1  0.301436  0.326945  0.151228  1
  O  O27  1  0.301434  0.326950  0.651226  1
  O  O28  1  0.695281  0.003638  0.344634  1
  O  O29  1  0.695285  0.003634  0.844633  1
  O  O30  1  0.195284  0.496361  0.405366  1
  O  O31  1  0.195286  0.496368  0.905369  1
  O  O32  1  0.697743  0.328444  0.349645  1
  O  O33  1  0.697743  0.328449  0.849646  1
  O  O34  1  0.197743  0.171554  0.400355  1
  O  O35  1  0.197742  0.171551  0.900355  1
