# generated using pymatgen
data_Li5VO4F
_symmetry_space_group_name_H-M   'P 1'
_cell_length_a   5.13703222
_cell_length_b   5.13703222
_cell_length_c   5.81470057
_cell_angle_alpha   73.65085018
_cell_angle_beta   73.65085018
_cell_angle_gamma   46.07587587
_symmetry_Int_Tables_number   1
_chemical_formula_structural   Li5VO4F
_chemical_formula_sum   'Li5 V1 O4 F1'
_cell_volume   105.22254041
_cell_formula_units_Z   1
loop_
 _symmetry_equiv_pos_site_id
 _symmetry_equiv_pos_as_xyz
  1  'x, y, z'
loop_
 _atom_site_type_symbol
 _atom_site_label
 _atom_site_symmetry_multiplicity
 _atom_site_fract_x
 _atom_site_fract_y
 _atom_site_fract_z
 _atom_site_occupancy
  Li  Li0  1  0.670012  0.670012  0.110904  1
  Li  Li1  1  0.695780  0.695780  0.657119  1
  Li  Li2  1  0.289976  0.289976  0.303668  1
  Li  Li3  1  0.316866  0.316866  0.855136  1
  Li  Li4  1  0.986220  0.986220  0.478493  1
  V  V5  1  0.976527  0.976527  0.015076  1
  O  O6  1  0.133143  0.133143  0.147821  1
  O  O7  1  0.490595  0.490595  0.984767  1
  O  O8  1  0.825520  0.825520  0.313969  1
  O  O9  1  0.854129  0.854129  0.810714  1
  F  F10  1  0.159872  0.159872  0.648837  1
