# generated using pymatgen
data_Fe2OF3
_symmetry_space_group_name_H-M   'P 1'
_cell_length_a   4.81310527
_cell_length_b   4.81310326
_cell_length_c   6.26555597
_cell_angle_alpha   89.84729189
_cell_angle_beta   90.15282856
_cell_angle_gamma   88.17993020
_symmetry_Int_Tables_number   1
_chemical_formula_structural   Fe2OF3
_chemical_formula_sum   'Fe4 O2 F6'
_cell_volume   145.07340581
_cell_formula_units_Z   2
loop_
 _symmetry_equiv_pos_site_id
 _symmetry_equiv_pos_as_xyz
  1  'x, y, z'
loop_
 _atom_site_type_symbol
 _atom_site_label
 _atom_site_symmetry_multiplicity
 _atom_site_fract_x
 _atom_site_fract_y
 _atom_site_fract_z
 _atom_site_occupancy
  Fe  Fe0  1  0.028012  0.971989  0.498521  1
  Fe  Fe1  1  0.487932  0.512049  0.749862  1
  Fe  Fe2  1  0.027908  0.972090  0.998292  1
  Fe  Fe3  1  0.487772  0.512236  0.249925  1
  O  O4  1  0.188584  0.811421  0.252002  1
  O  O5  1  0.188711  0.811302  0.752149  1
  F  F6  1  0.799866  0.200132  0.250603  1
  F  F7  1  0.800035  0.199964  0.750312  1
  F  F8  1  0.287135  0.291856  0.999546  1
  F  F9  1  0.287486  0.291573  0.499622  1
  F  F10  1  0.708140  0.712866  0.999538  1
  F  F11  1  0.708424  0.712518  0.499628  1
