# generated using pymatgen
data_NbO2F
_symmetry_space_group_name_H-M   'P 1'
_cell_length_a   5.42385181
_cell_length_b   5.42385181
_cell_length_c   5.66847926
_cell_angle_alpha   60.34872799
_cell_angle_beta   60.34872799
_cell_angle_gamma   61.60409246
_symmetry_Int_Tables_number   1
_chemical_formula_structural   NbO2F
_chemical_formula_sum   'Nb2 O4 F2'
_cell_volume   119.91749392
_cell_formula_units_Z   2
loop_
 _symmetry_equiv_pos_site_id
 _symmetry_equiv_pos_as_xyz
  1  'x, y, z'
loop_
 _atom_site_type_symbol
 _atom_site_label
 _atom_site_symmetry_multiplicity
 _atom_site_fract_x
 _atom_site_fract_y
 _atom_site_fract_z
 _atom_site_occupancy
  Nb  Nb0  1  0.748082  0.188511  0.858032  1
  Nb  Nb1  1  0.188511  0.748082  0.358032  1
  O  O2  1  0.897372  0.538720  0.585892  1
  O  O3  1  0.049469  0.963431  0.600469  1
  O  O4  1  0.538720  0.897372  0.085892  1
  O  O5  1  0.963431  0.049469  0.100469  1
  F  F6  1  0.467594  0.389252  0.591959  1
  F  F7  1  0.389252  0.467594  0.091959  1
