# generated using pymatgen
data_Li2AlCoO4
_symmetry_space_group_name_H-M   'P 1'
_cell_length_a   5.33780504
_cell_length_b   5.33780504
_cell_length_c   6.32346800
_cell_angle_alpha   89.99892740
_cell_angle_beta   90.00109621
_cell_angle_gamma   89.52710787
_symmetry_Int_Tables_number   1
_chemical_formula_structural   Li2AlCoO4
_chemical_formula_sum   'Li4 Al2 Co2 O8'
_cell_volume   180.16314200
_cell_formula_units_Z   2
loop_
 _symmetry_equiv_pos_site_id
 _symmetry_equiv_pos_as_xyz
  1  'x, y, z'
loop_
 _atom_site_type_symbol
 _atom_site_label
 _atom_site_symmetry_multiplicity
 _atom_site_fract_x
 _atom_site_fract_y
 _atom_site_fract_z
 _atom_site_occupancy
  Li  Li0  1  0.316980  0.683021  0.500001  1
  Li  Li1  1  0.683021  0.316980  0.999999  1
  Li  Li2  1  0.184082  0.184082  0.750000  1
  Li  Li3  1  0.815917  0.815917  0.250000  1
  Al  Al4  1  0.320745  0.679263  0.999998  1
  Al  Al5  1  0.679263  0.320745  0.500002  1
  Co  Co6  1  0.174525  0.174525  0.250000  1
  Co  Co7  1  0.825481  0.825481  0.750000  1
  O  O8  1  0.198388  0.822860  0.231975  1
  O  O9  1  0.177144  0.801611  0.768030  1
  O  O10  1  0.801611  0.177144  0.731970  1
  O  O11  1  0.822860  0.198388  0.268025  1
  O  O12  1  0.292320  0.346423  0.013902  1
  O  O13  1  0.653566  0.707673  0.986101  1
  O  O14  1  0.346423  0.292320  0.486098  1
  O  O15  1  0.707673  0.653566  0.513899  1
