# generated using pymatgen
data_Li2NiP2O7
_symmetry_space_group_name_H-M   'P 1'
_cell_length_a   4.99683946
_cell_length_b   13.44325845
_cell_length_c   8.27971600
_cell_angle_alpha   89.99948495
_cell_angle_beta   89.99924898
_cell_angle_gamma   91.42935294
_symmetry_Int_Tables_number   1
_chemical_formula_structural   Li2NiP2O7
_chemical_formula_sum   'Li8 Ni4 P8 O28'
_cell_volume   556.00696229
_cell_formula_units_Z   4
loop_
 _symmetry_equiv_pos_site_id
 _symmetry_equiv_pos_as_xyz
  1  'x, y, z'
loop_
 _atom_site_type_symbol
 _atom_site_label
 _atom_site_symmetry_multiplicity
 _atom_site_fract_x
 _atom_site_fract_y
 _atom_site_fract_z
 _atom_site_occupancy
  Li  Li0  1  0.344264  0.174739  0.145199  1
  Li  Li1  1  0.844267  0.674732  0.145273  1
  Li  Li2  1  0.155690  0.325268  0.645174  1
  Li  Li3  1  0.655695  0.825254  0.645247  1
  Li  Li4  1  0.699345  0.041905  0.320187  1
  Li  Li5  1  0.199287  0.541890  0.320184  1
  Li  Li6  1  0.800558  0.458097  0.820169  1
  Li  Li7  1  0.300696  0.958093  0.820195  1
  Ni  Ni8  1  0.842739  0.639583  0.504193  1
  Ni  Ni9  1  0.657407  0.860345  0.004139  1
  Ni  Ni10  1  0.343037  0.139539  0.504000  1
  Ni  Ni11  1  0.156704  0.360484  0.003910  1
  P  P12  1  0.630394  0.241403  0.814768  1
  P  P13  1  0.130542  0.741391  0.814768  1
  P  P14  1  0.869590  0.258601  0.314728  1
  P  P15  1  0.369523  0.758606  0.314748  1
  P  P16  1  0.671490  0.456538  0.208135  1
  P  P17  1  0.171606  0.956534  0.208039  1
  P  P18  1  0.828448  0.043452  0.708127  1
  P  P19  1  0.328391  0.543474  0.708052  1
  O  O20  1  0.130045  0.057750  0.680728  1
  O  O21  1  0.630042  0.557768  0.680676  1
  O  O22  1  0.369921  0.442256  0.180714  1
  O  O23  1  0.869958  0.942230  0.180668  1
  O  O24  1  0.232556  0.054173  0.298865  1
  O  O25  1  0.732511  0.554190  0.298894  1
  O  O26  1  0.267481  0.445823  0.798836  1
  O  O27  1  0.767532  0.945799  0.798875  1
  O  O28  1  0.452868  0.257292  0.962363  1
  O  O29  1  0.952952  0.757249  0.962362  1
  O  O30  1  0.047093  0.242718  0.462354  1
  O  O31  1  0.547053  0.742723  0.462345  1
  O  O32  1  0.477386  0.248029  0.655750  1
  O  O33  1  0.977488  0.748062  0.655774  1
  O  O34  1  0.022783  0.252063  0.155725  1
  O  O35  1  0.522724  0.751967  0.155740  1
  O  O36  1  0.620097  0.189153  0.312308  1
  O  O37  1  0.120114  0.689138  0.312337  1
  O  O38  1  0.879902  0.310845  0.812314  1
  O  O39  1  0.379970  0.810839  0.812343  1
  O  O40  1  0.661575  0.047827  0.553381  1
  O  O41  1  0.161605  0.547785  0.553253  1
  O  O42  1  0.838340  0.452196  0.053371  1
  O  O43  1  0.338375  0.952200  0.053241  1
  O  O44  1  0.730640  0.127987  0.833555  1
  O  O45  1  0.230592  0.627976  0.833548  1
  O  O46  1  0.769315  0.372008  0.333573  1
  O  O47  1  0.269415  0.872026  0.333548  1
