# generated using pymatgen
data_VOF3
_symmetry_space_group_name_H-M   'P 1'
_cell_length_a   5.40026800
_cell_length_b   5.52082100
_cell_length_c   5.58380628
_cell_angle_alpha   60.90652385
_cell_angle_beta   90.00000000
_cell_angle_gamma   90.00000000
_symmetry_Int_Tables_number   1
_chemical_formula_structural   VOF3
_chemical_formula_sum   'V2 O2 F6'
_cell_volume   145.47054858
_cell_formula_units_Z   2
loop_
 _symmetry_equiv_pos_site_id
 _symmetry_equiv_pos_as_xyz
  1  'x, y, z'
loop_
 _atom_site_type_symbol
 _atom_site_label
 _atom_site_symmetry_multiplicity
 _atom_site_fract_x
 _atom_site_fract_y
 _atom_site_fract_z
 _atom_site_occupancy
  V  V0  1  0.051530  0.275946  0.705245  1
  V  V1  1  0.551530  0.724054  0.294755  1
  O  O2  1  0.219973  0.492149  0.439272  1
  O  O3  1  0.719973  0.507851  0.560728  1
  F  F4  1  0.896864  0.060155  0.600906  1
  F  F5  1  0.278995  0.018754  0.904346  1
  F  F6  1  0.396864  0.939845  0.399094  1
  F  F7  1  0.552639  0.575121  0.077854  1
  F  F8  1  0.052639  0.424879  0.922146  1
  F  F9  1  0.778995  0.981246  0.095654  1
