# generated using pymatgen
data_Al2O3
_symmetry_space_group_name_H-M   'P 1'
_cell_length_a   5.37529722
_cell_length_b   5.37529722
_cell_length_c   7.26821141
_cell_angle_alpha   73.77835716
_cell_angle_beta   73.77835716
_cell_angle_gamma   34.62995831
_symmetry_Int_Tables_number   1
_chemical_formula_structural   Al2O3
_chemical_formula_sum   'Al4 O6'
_cell_volume   114.11769176
_cell_formula_units_Z   2
loop_
 _symmetry_equiv_pos_site_id
 _symmetry_equiv_pos_as_xyz
  1  'x, y, z'
loop_
 _atom_site_type_symbol
 _atom_site_label
 _atom_site_symmetry_multiplicity
 _atom_site_fract_x
 _atom_site_fract_y
 _atom_site_fract_z
 _atom_site_occupancy
  Al  Al0  1  0.906626  0.906626  0.906443  1
  Al  Al1  1  0.249918  0.249918  0.656664  1
  Al  Al2  1  0.093374  0.093374  0.093557  1
  Al  Al3  1  0.750082  0.750082  0.343336  1
  O  O4  1  0.089837  0.089837  0.843736  1
  O  O5  1  0.654852  0.654852  0.146904  1
  O  O6  1  0.345148  0.345148  0.853096  1
  O  O7  1  0.817594  0.817594  0.568826  1
  O  O8  1  0.182406  0.182406  0.431174  1
  O  O9  1  0.910163  0.910163  0.156264  1
