# generated using pymatgen
data_LiFeF4
_symmetry_space_group_name_H-M   'P 1'
_cell_length_a   4.94635500
_cell_length_b   6.09077653
_cell_length_c   6.21172077
_cell_angle_alpha   119.33664500
_cell_angle_beta   109.11647554
_cell_angle_gamma   89.75315082
_symmetry_Int_Tables_number   1
_chemical_formula_structural   LiFeF4
_chemical_formula_sum   'Li2 Fe2 F8'
_cell_volume   151.35022128
_cell_formula_units_Z   2
loop_
 _symmetry_equiv_pos_site_id
 _symmetry_equiv_pos_as_xyz
  1  'x, y, z'
loop_
 _atom_site_type_symbol
 _atom_site_label
 _atom_site_symmetry_multiplicity
 _atom_site_fract_x
 _atom_site_fract_y
 _atom_site_fract_z
 _atom_site_occupancy
  Li  Li0  1  0.502769  0.996177  0.998800  1
  Li  Li1  1  0.997516  0.498951  0.996971  1
  Fe  Fe2  1  0.249176  0.160166  0.499826  1
  Fe  Fe3  1  0.751050  0.829180  0.501142  1
  F  F4  1  0.333637  0.790486  0.291496  1
  F  F5  1  0.312928  0.212805  0.247601  1
  F  F6  1  0.832296  0.990690  0.291094  1
  F  F7  1  0.815587  0.525217  0.247640  1
  F  F8  1  0.690958  0.769204  0.750774  1
  F  F9  1  0.665817  0.196481  0.712149  1
  F  F10  1  0.186951  0.467823  0.750140  1
  F  F11  1  0.167063  0.002337  0.710871  1
