# generated using pymatgen
data_LiFeSiO4
_symmetry_space_group_name_H-M   'P 1'
_cell_length_a   5.41315847
_cell_length_b   24.23483700
_cell_length_c   5.41316600
_cell_angle_alpha   90.00000236
_cell_angle_beta   120.00007940
_cell_angle_gamma   89.99997390
_symmetry_Int_Tables_number   1
_chemical_formula_structural   LiFeSiO4
_chemical_formula_sum   'Li6 Fe6 Si6 O24'
_cell_volume   614.99625898
_cell_formula_units_Z   6
loop_
 _symmetry_equiv_pos_site_id
 _symmetry_equiv_pos_as_xyz
  1  'x, y, z'
loop_
 _atom_site_type_symbol
 _atom_site_label
 _atom_site_symmetry_multiplicity
 _atom_site_fract_x
 _atom_site_fract_y
 _atom_site_fract_z
 _atom_site_occupancy
  Li  Li0  1  0.000000  0.000000  0.000000  1
  Li  Li1  1  0.000000  0.500000  0.000000  1
  Li  Li2  1  0.000000  0.166666  0.000000  1
  Li  Li3  1  0.000000  0.666667  0.000000  1
  Li  Li4  1  0.000000  0.333334  0.000000  1
  Li  Li5  1  0.000000  0.833334  0.000000  1
  Fe  Fe6  1  0.499999  0.916667  0.999999  1
  Fe  Fe7  1  0.499999  0.583333  0.499999  1
  Fe  Fe8  1  0.000001  0.250000  0.499999  1
  Fe  Fe9  1  0.500001  0.416667  0.000002  1
  Fe  Fe10  1  0.500000  0.083333  0.500001  1
  Fe  Fe11  1  0.999999  0.750000  0.500000  1
  Si  Si12  1  0.500000  0.166666  0.000000  1
  Si  Si13  1  0.500000  0.666668  0.000000  1
  Si  Si14  1  0.500000  0.333334  0.500000  1
  Si  Si15  1  0.500000  0.833332  0.500000  1
  Si  Si16  1  0.000000  0.000001  0.500000  1
  Si  Si17  1  0.000000  0.499999  0.500000  1
  O  O18  1  0.788212  0.203887  0.185069  1
  O  O19  1  0.788220  0.703898  0.185091  1
  O  O20  1  0.814909  0.462769  0.211779  1
  O  O21  1  0.814931  0.962780  0.211788  1
  O  O22  1  0.396871  0.129436  0.185093  1
  O  O23  1  0.396860  0.629447  0.185070  1
  O  O24  1  0.396871  0.370564  0.211779  1
  O  O25  1  0.396860  0.870553  0.211789  1
  O  O26  1  0.814908  0.037231  0.603128  1
  O  O27  1  0.814931  0.537220  0.603140  1
  O  O28  1  0.788211  0.296113  0.603141  1
  O  O29  1  0.788219  0.796103  0.603127  1
  O  O30  1  0.211789  0.296113  0.396859  1
  O  O31  1  0.211781  0.796103  0.396873  1
  O  O32  1  0.185092  0.037231  0.396872  1
  O  O33  1  0.185069  0.537220  0.396860  1
  O  O34  1  0.603129  0.370564  0.788222  1
  O  O35  1  0.603141  0.870553  0.788211  1
  O  O36  1  0.603128  0.129436  0.814907  1
  O  O37  1  0.603141  0.629447  0.814931  1
  O  O38  1  0.185092  0.462769  0.788221  1
  O  O39  1  0.185069  0.962780  0.788212  1
  O  O40  1  0.211788  0.203887  0.814931  1
  O  O41  1  0.211780  0.703898  0.814909  1
