# generated using pymatgen
data_ScBiO3
_symmetry_space_group_name_H-M   'P 1'
_cell_length_a   5.91843586
_cell_length_b   5.91843586
_cell_length_c   5.91843565
_cell_angle_alpha   58.49293785
_cell_angle_beta   58.49293785
_cell_angle_gamma   58.49293269
_symmetry_Int_Tables_number   1
_chemical_formula_structural   ScBiO3
_chemical_formula_sum   'Sc2 Bi2 O6'
_cell_volume   141.53653537
_cell_formula_units_Z   2
loop_
 _symmetry_equiv_pos_site_id
 _symmetry_equiv_pos_as_xyz
  1  'x, y, z'
loop_
 _atom_site_type_symbol
 _atom_site_label
 _atom_site_symmetry_multiplicity
 _atom_site_fract_x
 _atom_site_fract_y
 _atom_site_fract_z
 _atom_site_occupancy
  Sc  Sc0  1  0.779480  0.779480  0.779480  1
  Sc  Sc1  1  0.279480  0.279480  0.279480  1
  Bi  Bi2  1  0.994231  0.994231  0.994231  1
  Bi  Bi3  1  0.494231  0.494231  0.494231  1
  O  O4  1  0.121246  0.572592  0.954026  1
  O  O5  1  0.072592  0.621246  0.454026  1
  O  O6  1  0.454026  0.072592  0.621246  1
  O  O7  1  0.954026  0.121246  0.572592  1
  O  O8  1  0.572592  0.954026  0.121246  1
  O  O9  1  0.621246  0.454026  0.072592  1
