# generated using pymatgen
data_Mn4OF8
_symmetry_space_group_name_H-M   'P 1'
_cell_length_a   5.48593384
_cell_length_b   5.48593384
_cell_length_c   15.01527800
_cell_angle_alpha   87.36286180
_cell_angle_beta   87.36286180
_cell_angle_gamma   59.17519966
_symmetry_Int_Tables_number   1
_chemical_formula_structural   Mn4OF8
_chemical_formula_sum   'Mn8 O2 F16'
_cell_volume   387.51323174
_cell_formula_units_Z   2
loop_
 _symmetry_equiv_pos_site_id
 _symmetry_equiv_pos_as_xyz
  1  'x, y, z'
loop_
 _atom_site_type_symbol
 _atom_site_label
 _atom_site_symmetry_multiplicity
 _atom_site_fract_x
 _atom_site_fract_y
 _atom_site_fract_z
 _atom_site_occupancy
  Mn  Mn0  1  0.297995  0.358066  0.533415  1
  Mn  Mn1  1  0.667961  0.684155  0.178326  1
  Mn  Mn2  1  0.358066  0.297995  0.033415  1
  Mn  Mn3  1  0.666570  0.657508  0.986148  1
  Mn  Mn4  1  0.657508  0.666570  0.486148  1
  Mn  Mn5  1  0.323853  0.345552  0.319591  1
  Mn  Mn6  1  0.345552  0.323853  0.819591  1
  Mn  Mn7  1  0.684155  0.667961  0.678326  1
  O  O8  1  0.442185  0.908894  0.078880  1
  O  O9  1  0.908894  0.442185  0.578880  1
  F  F10  1  0.361675  0.685323  0.573315  1
  F  F11  1  0.016958  0.385212  0.923424  1
  F  F12  1  0.418963  0.961097  0.754168  1
  F  F13  1  0.685323  0.361675  0.073315  1
  F  F14  1  0.385212  0.016958  0.423424  1
  F  F15  1  0.000026  0.601956  0.419901  1
  F  F16  1  0.024634  0.606498  0.741493  1
  F  F17  1  0.961097  0.418963  0.254168  1
  F  F18  1  0.378291  0.633784  0.241761  1
  F  F19  1  0.387007  0.562077  0.927427  1
  F  F20  1  0.616495  0.988547  0.587505  1
  F  F21  1  0.601956  0.000026  0.919901  1
  F  F22  1  0.606498  0.024634  0.241493  1
  F  F23  1  0.562077  0.387007  0.427427  1
  F  F24  1  0.988547  0.616495  0.087505  1
  F  F25  1  0.633784  0.378291  0.741761  1
