# generated using pymatgen
data_BaNa4O3
_symmetry_space_group_name_H-M   'P 1'
_cell_length_a   9.43542020
_cell_length_b   9.43542020
_cell_length_c   5.84049397
_cell_angle_alpha   89.28044249
_cell_angle_beta   89.28044249
_cell_angle_gamma   143.30939382
_symmetry_Int_Tables_number   1
_chemical_formula_structural   BaNa4O3
_chemical_formula_sum   'Ba2 Na8 O6'
_cell_volume   310.42694548
_cell_formula_units_Z   2
loop_
 _symmetry_equiv_pos_site_id
 _symmetry_equiv_pos_as_xyz
  1  'x, y, z'
loop_
 _atom_site_type_symbol
 _atom_site_label
 _atom_site_symmetry_multiplicity
 _atom_site_fract_x
 _atom_site_fract_y
 _atom_site_fract_z
 _atom_site_occupancy
  Ba  Ba0  1  0.842113  0.152782  0.739007  1
  Ba  Ba1  1  0.152782  0.842113  0.239007  1
  Na  Na2  1  0.515603  0.476651  0.229965  1
  Na  Na3  1  0.960162  0.013041  0.244048  1
  Na  Na4  1  0.720464  0.246754  0.209839  1
  Na  Na5  1  0.596491  0.323206  0.697848  1
  Na  Na6  1  0.323206  0.596491  0.197848  1
  Na  Na7  1  0.476651  0.515603  0.729965  1
  Na  Na8  1  0.013041  0.960162  0.744048  1
  Na  Na9  1  0.246754  0.720464  0.709839  1
  O  O10  1  0.319234  0.172617  0.987859  1
  O  O11  1  0.515093  0.047209  0.518401  1
  O  O12  1  0.172617  0.319234  0.487859  1
  O  O13  1  0.814412  0.672543  0.480345  1
  O  O14  1  0.047209  0.515093  0.018401  1
  O  O15  1  0.672543  0.814412  0.980345  1
