# generated using pymatgen
data_LiCrO2
_symmetry_space_group_name_H-M   'P 1'
_cell_length_a   2.95346147
_cell_length_b   5.05976521
_cell_length_c   9.97726717
_cell_angle_alpha   89.99968374
_cell_angle_beta   90.00092915
_cell_angle_gamma   89.99998600
_symmetry_Int_Tables_number   1
_chemical_formula_structural   LiCrO2
_chemical_formula_sum   'Li4 Cr4 O8'
_cell_volume   149.09850068
_cell_formula_units_Z   4
loop_
 _symmetry_equiv_pos_site_id
 _symmetry_equiv_pos_as_xyz
  1  'x, y, z'
loop_
 _atom_site_type_symbol
 _atom_site_label
 _atom_site_symmetry_multiplicity
 _atom_site_fract_x
 _atom_site_fract_y
 _atom_site_fract_z
 _atom_site_occupancy
  Li  Li0  1  0.000030  0.333445  0.760122  1
  Li  Li1  1  0.500028  0.833493  0.760132  1
  Li  Li2  1  0.500041  0.166509  0.260132  1
  Li  Li3  1  0.000042  0.666555  0.260121  1
  Cr  Cr4  1  0.500039  0.833099  0.500458  1
  Cr  Cr5  1  0.500063  0.166884  0.000453  1
  Cr  Cr6  1  0.000053  0.333015  0.500464  1
  Cr  Cr7  1  0.000057  0.666993  0.000444  1
  O  O8  1  0.000035  0.998005  0.387440  1
  O  O9  1  0.500038  0.498031  0.387409  1
  O  O10  1  0.500046  0.501971  0.887403  1
  O  O11  1  0.000048  0.002000  0.887430  1
  O  O12  1  0.000056  0.331688  0.111567  1
  O  O13  1  0.500059  0.831659  0.111535  1
  O  O14  1  0.500050  0.168344  0.611541  1
  O  O15  1  0.000047  0.668312  0.611579  1
