# generated using pymatgen
data_TmTaO4
_symmetry_space_group_name_H-M   'P 1'
_cell_length_a   7.91822854
_cell_length_b   7.91822854
_cell_length_c   5.39936500
_cell_angle_alpha   90.00000000
_cell_angle_beta   90.00000000
_cell_angle_gamma   151.75819332
_symmetry_Int_Tables_number   1
_chemical_formula_structural   TmTaO4
_chemical_formula_sum   'Tm2 Ta2 O8'
_cell_volume   160.19084814
_cell_formula_units_Z   2
loop_
 _symmetry_equiv_pos_site_id
 _symmetry_equiv_pos_as_xyz
  1  'x, y, z'
loop_
 _atom_site_type_symbol
 _atom_site_label
 _atom_site_symmetry_multiplicity
 _atom_site_fract_x
 _atom_site_fract_y
 _atom_site_fract_z
 _atom_site_occupancy
  Tm  Tm0  1  0.801767  0.198233  0.879551  1
  Tm  Tm1  1  0.198233  0.801767  0.379551  1
  Ta  Ta2  1  0.585693  0.414307  0.808262  1
  Ta  Ta3  1  0.414307  0.585693  0.308262  1
  O  O4  1  0.899133  0.100867  0.248678  1
  O  O5  1  0.702196  0.297804  0.586993  1
  O  O6  1  0.668459  0.331541  0.087198  1
  O  O7  1  0.522271  0.477729  0.474119  1
  O  O8  1  0.477729  0.522271  0.974119  1
  O  O9  1  0.331541  0.668459  0.587198  1
  O  O10  1  0.297804  0.702196  0.086993  1
  O  O11  1  0.100867  0.899133  0.748678  1
