# generated using pymatgen
data_LiMnO2
_symmetry_space_group_name_H-M   'P 1'
_cell_length_a   3.13200081
_cell_length_b   10.17897567
_cell_length_c   4.97416576
_cell_angle_alpha   89.99997614
_cell_angle_beta   89.99564364
_cell_angle_gamma   99.44101897
_symmetry_Int_Tables_number   1
_chemical_formula_structural   LiMnO2
_chemical_formula_sum   'Li4 Mn4 O8'
_cell_volume   156.43123147
_cell_formula_units_Z   4
loop_
 _symmetry_equiv_pos_site_id
 _symmetry_equiv_pos_as_xyz
  1  'x, y, z'
loop_
 _atom_site_type_symbol
 _atom_site_label
 _atom_site_symmetry_multiplicity
 _atom_site_fract_x
 _atom_site_fract_y
 _atom_site_fract_z
 _atom_site_occupancy
  Li  Li0  1  0.616664  0.242158  0.152971  1
  Li  Li1  1  0.116698  0.242175  0.653079  1
  Li  Li2  1  0.116631  0.742176  0.346925  1
  Li  Li3  1  0.616630  0.742147  0.847017  1
  Mn  Mn4  1  0.959240  0.499090  0.705128  1
  Mn  Mn5  1  0.958922  0.998948  0.294885  1
  Mn  Mn6  1  0.459060  0.499026  0.205301  1
  Mn  Mn7  1  0.458943  0.998939  0.794731  1
  O  O8  1  0.467434  0.886705  0.113026  1
  O  O9  1  0.967343  0.886683  0.613031  1
  O  O10  1  0.967488  0.386813  0.386961  1
  O  O11  1  0.467551  0.386832  0.886966  1
  O  O12  1  0.956723  0.113067  0.977282  1
  O  O13  1  0.456736  0.113085  0.477272  1
  O  O14  1  0.456889  0.613212  0.522718  1
  O  O15  1  0.956850  0.613188  0.022704  1
