# generated using pymatgen
data_FeHO2
_symmetry_space_group_name_H-M   'P 1'
_cell_length_a   5.31581121
_cell_length_b   6.16189296
_cell_length_c   5.70120765
_cell_angle_alpha   105.65162894
_cell_angle_beta   62.04807743
_cell_angle_gamma   89.99611614
_symmetry_Int_Tables_number   1
_chemical_formula_structural   FeHO2
_chemical_formula_sum   'Fe4 H4 O8'
_cell_volume   157.07622902
_cell_formula_units_Z   4
loop_
 _symmetry_equiv_pos_site_id
 _symmetry_equiv_pos_as_xyz
  1  'x, y, z'
loop_
 _atom_site_type_symbol
 _atom_site_label
 _atom_site_symmetry_multiplicity
 _atom_site_fract_x
 _atom_site_fract_y
 _atom_site_fract_z
 _atom_site_occupancy
  Fe  Fe0  1  0.502086  0.748987  0.998605  1
  Fe  Fe1  1  0.002123  0.500294  0.998528  1
  Fe  Fe2  1  0.502059  0.248996  0.998670  1
  Fe  Fe3  1  0.002099  0.000319  0.998596  1
  H  H4  1  0.056608  0.636656  0.552210  1
  H  H5  1  0.556659  0.389680  0.552196  1
  H  H6  1  0.056600  0.136641  0.552226  1
  H  H7  1  0.556637  0.889693  0.552209  1
  O  O8  1  0.574116  0.542965  0.182642  1
  O  O9  1  0.074090  0.298234  0.182637  1
  O  O10  1  0.574110  0.042962  0.182654  1
  O  O11  1  0.074097  0.798223  0.182627  1
  O  O12  1  0.955652  0.688885  0.756411  1
  O  O13  1  0.455652  0.439320  0.756402  1
  O  O14  1  0.955646  0.188879  0.756421  1
  O  O15  1  0.455647  0.939328  0.756411  1
