# generated using pymatgen
data_BaBePO4F
_symmetry_space_group_name_H-M   'P 1'
_cell_length_a   4.93334936
_cell_length_b   4.93334936
_cell_length_c   9.14937088
_cell_angle_alpha   74.65341806
_cell_angle_beta   74.65341806
_cell_angle_gamma   90.11592510
_symmetry_Int_Tables_number   1
_chemical_formula_structural   BaBePO4F
_chemical_formula_sum   'Ba2 Be2 P2 O8 F2'
_cell_volume   206.45702199
_cell_formula_units_Z   2
loop_
 _symmetry_equiv_pos_site_id
 _symmetry_equiv_pos_as_xyz
  1  'x, y, z'
loop_
 _atom_site_type_symbol
 _atom_site_label
 _atom_site_symmetry_multiplicity
 _atom_site_fract_x
 _atom_site_fract_y
 _atom_site_fract_z
 _atom_site_occupancy
  Ba  Ba0  1  0.000495  0.750461  0.999396  1
  Ba  Ba1  1  0.750461  0.000495  0.499396  1
  Be  Be2  1  0.167390  0.400975  0.663538  1
  Be  Be3  1  0.400975  0.167390  0.163538  1
  P  P4  1  0.582809  0.312239  0.834493  1
  P  P5  1  0.312239  0.582809  0.334493  1
  O  O6  1  0.840141  0.485995  0.703018  1
  O  O7  1  0.602324  0.354068  0.994984  1
  O  O8  1  0.999169  0.583018  0.341022  1
  O  O9  1  0.306910  0.436118  0.801321  1
  O  O10  1  0.354068  0.602324  0.494984  1
  O  O11  1  0.583018  0.999169  0.841022  1
  O  O12  1  0.436118  0.306910  0.301321  1
  O  O13  1  0.485995  0.840141  0.203018  1
  F  F14  1  0.173642  0.086953  0.651798  1
  F  F15  1  0.086953  0.173642  0.151798  1
