# generated using pymatgen
data_LiFePO4
_symmetry_space_group_name_H-M   'P 1'
_cell_length_a   5.25938207
_cell_length_b   5.26055712
_cell_length_c   26.51308200
_cell_angle_alpha   89.99978164
_cell_angle_beta   89.99985465
_cell_angle_gamma   119.97420468
_symmetry_Int_Tables_number   1
_chemical_formula_structural   LiFePO4
_chemical_formula_sum   'Li6 Fe6 P6 O24'
_cell_volume   635.43354226
_cell_formula_units_Z   6
loop_
 _symmetry_equiv_pos_site_id
 _symmetry_equiv_pos_as_xyz
  1  'x, y, z'
loop_
 _atom_site_type_symbol
 _atom_site_label
 _atom_site_symmetry_multiplicity
 _atom_site_fract_x
 _atom_site_fract_y
 _atom_site_fract_z
 _atom_site_occupancy
  Li  Li0  1  0.000002  0.999999  0.083356  1
  Li  Li1  1  0.000003  0.000001  0.583328  1
  Li  Li2  1  0.000000  0.000000  0.249953  1
  Li  Li3  1  0.000000  0.000001  0.750019  1
  Li  Li4  1  0.000000  0.999998  0.416628  1
  Li  Li5  1  0.999998  0.999999  0.916710  1
  Fe  Fe6  1  0.999989  0.499998  0.833306  1
  Fe  Fe7  1  0.500027  0.499998  0.666696  1
  Fe  Fe8  1  0.500005  0.999994  0.500026  1
  Fe  Fe9  1  0.000022  0.499998  0.333335  1
  Fe  Fe10  1  0.500003  0.500007  0.166650  1
  Fe  Fe11  1  0.499993  0.000010  0.999974  1
  P  P12  1  0.999998  0.499994  0.083331  1
  P  P13  1  0.000002  0.500002  0.583253  1
  P  P14  1  0.500000  0.499998  0.416602  1
  P  P15  1  0.500002  0.500011  0.916751  1
  P  P16  1  0.499998  0.000002  0.249991  1
  P  P17  1  0.499999  0.000000  0.750076  1
  O  O18  1  0.182715  0.778339  0.050699  1
  O  O19  1  0.182813  0.778166  0.550612  1
  O  O20  1  0.221962  0.817402  0.282678  1
  O  O21  1  0.221757  0.817203  0.782709  1
  O  O22  1  0.182998  0.405052  0.116032  1
  O  O23  1  0.182954  0.404913  0.615962  1
  O  O24  1  0.222079  0.405123  0.383930  1
  O  O25  1  0.221710  0.404549  0.884065  1
  O  O26  1  0.595445  0.778290  0.449271  1
  O  O27  1  0.595210  0.778224  0.949380  1
  O  O28  1  0.594988  0.816935  0.217318  1
  O  O29  1  0.595111  0.817165  0.717355  1
  O  O30  1  0.405007  0.183068  0.217317  1
  O  O31  1  0.404882  0.182834  0.717355  1
  O  O32  1  0.404551  0.221706  0.449271  1
  O  O33  1  0.404790  0.221787  0.949378  1
  O  O34  1  0.816996  0.594946  0.116030  1
  O  O35  1  0.817042  0.595085  0.615962  1
  O  O36  1  0.777921  0.594876  0.383930  1
  O  O37  1  0.778292  0.595456  0.884064  1
  O  O38  1  0.817283  0.221651  0.050699  1
  O  O39  1  0.817185  0.221833  0.550613  1
  O  O40  1  0.778038  0.182595  0.282678  1
  O  O41  1  0.778239  0.182794  0.782709  1
