# generated using pymatgen
data_Li3V2(CO3)4
_symmetry_space_group_name_H-M   'P 1'
_cell_length_a   5.34934603
_cell_length_b   6.49228233
_cell_length_c   8.53285609
_cell_angle_alpha   83.95106952
_cell_angle_beta   72.87091469
_cell_angle_gamma   66.36959190
_symmetry_Int_Tables_number   1
_chemical_formula_structural   Li3V2(CO3)4
_chemical_formula_sum   'Li3 V2 C4 O12'
_cell_volume   259.42366053
_cell_formula_units_Z   1
loop_
 _symmetry_equiv_pos_site_id
 _symmetry_equiv_pos_as_xyz
  1  'x, y, z'
loop_
 _atom_site_type_symbol
 _atom_site_label
 _atom_site_symmetry_multiplicity
 _atom_site_fract_x
 _atom_site_fract_y
 _atom_site_fract_z
 _atom_site_occupancy
  Li  Li0  1  0.253801  0.530195  0.152294  1
  Li  Li1  1  0.153693  0.061609  0.325655  1
  Li  Li2  1  0.539825  0.932850  0.690036  1
  V  V3  1  0.881980  0.995586  0.997717  1
  V  V4  1  0.637091  0.505453  0.509066  1
  C  C5  1  0.736537  0.399647  0.207916  1
  C  C6  1  0.728751  0.885057  0.305410  1
  C  C7  1  0.916846  0.117333  0.699233  1
  C  C8  1  0.338519  0.605694  0.792911  1
  O  O9  1  0.749256  0.338680  0.069047  1
  O  O10  1  0.980248  0.888851  0.245686  1
  O  O11  1  0.561414  0.949221  0.211814  1
  O  O12  1  0.951848  0.395769  0.255023  1
  O  O13  1  0.490690  0.471691  0.321600  1
  O  O14  1  0.647205  0.817385  0.454795  1
  O  O15  1  0.909772  0.195570  0.550225  1
  O  O16  1  0.594445  0.606520  0.748271  1
  O  O17  1  0.262391  0.559735  0.672381  1
  O  O18  1  0.701519  0.079672  0.794105  1
  O  O19  1  0.131673  0.073976  0.752944  1
  O  O20  1  0.175915  0.649962  0.939361  1
