# generated using pymatgen
data_V3(O2F)2
_symmetry_space_group_name_H-M   'P 1'
_cell_length_a   5.11616422
_cell_length_b   5.58076798
_cell_length_c   5.09574606
_cell_angle_alpha   91.86019435
_cell_angle_beta   61.54609866
_cell_angle_gamma   63.40992116
_symmetry_Int_Tables_number   1
_chemical_formula_structural   V3(O2F)2
_chemical_formula_sum   'V3 O4 F2'
_cell_volume   108.65862529
_cell_formula_units_Z   1
loop_
 _symmetry_equiv_pos_site_id
 _symmetry_equiv_pos_as_xyz
  1  'x, y, z'
loop_
 _atom_site_type_symbol
 _atom_site_label
 _atom_site_symmetry_multiplicity
 _atom_site_fract_x
 _atom_site_fract_y
 _atom_site_fract_z
 _atom_site_occupancy
  V  V0  1  0.314039  0.061605  0.346895  1
  V  V1  1  0.732234  0.434769  0.136706  1
  V  V2  1  0.682645  0.989312  0.645213  1
  O  O3  1  0.535524  0.214072  0.068494  1
  O  O4  1  0.181342  0.243043  0.750772  1
  O  O5  1  0.881207  0.200293  0.399309  1
  O  O6  1  0.720763  0.766514  0.311144  1
  F  F7  1  0.186375  0.740067  0.519364  1
  F  F8  1  0.534107  0.754544  0.929108  1
