# generated using pymatgen
data_Li2Fe2SiO6
_symmetry_space_group_name_H-M   'P 1'
_cell_length_a   5.35303000
_cell_length_b   8.20448947
_cell_length_c   8.20449352
_cell_angle_alpha   84.65453515
_cell_angle_beta   70.95987240
_cell_angle_gamma   109.04010584
_symmetry_Int_Tables_number   1
_chemical_formula_structural   Li2Fe2SiO6
_chemical_formula_sum   'Li4 Fe4 Si2 O12'
_cell_volume   313.84899085
_cell_formula_units_Z   2
loop_
 _symmetry_equiv_pos_site_id
 _symmetry_equiv_pos_as_xyz
  1  'x, y, z'
loop_
 _atom_site_type_symbol
 _atom_site_label
 _atom_site_symmetry_multiplicity
 _atom_site_fract_x
 _atom_site_fract_y
 _atom_site_fract_z
 _atom_site_occupancy
  Li  Li0  1  0.999999  0.141725  0.141727  1
  Li  Li1  1  0.000001  0.641727  0.641725  1
  Li  Li2  1  0.000001  0.358287  0.358285  1
  Li  Li3  1  0.999999  0.858285  0.858287  1
  Fe  Fe4  1  0.000000  0.084922  0.584922  1
  Fe  Fe5  1  0.499999  0.415073  0.915073  1
  Fe  Fe6  1  0.000000  0.584912  0.084912  1
  Fe  Fe7  1  0.500000  0.915083  0.415083  1
  Si  Si8  1  0.499995  0.999993  0.000004  1
  Si  Si9  1  0.500005  0.500004  0.499993  1
  O  O10  1  0.165818  0.415820  0.084175  1
  O  O11  1  0.165818  0.915827  0.584181  1
  O  O12  1  0.834182  0.584175  0.915820  1
  O  O13  1  0.834182  0.084181  0.415827  1
  O  O14  1  0.219741  0.831081  0.013598  1
  O  O15  1  0.219740  0.331088  0.513597  1
  O  O16  1  0.597711  0.486394  0.668914  1
  O  O17  1  0.597702  0.986393  0.168920  1
  O  O18  1  0.402290  0.168914  0.986394  1
  O  O19  1  0.402298  0.668920  0.486394  1
  O  O20  1  0.780259  0.513597  0.331081  1
  O  O21  1  0.780260  0.013597  0.831088  1
