# generated using pymatgen
data_Li3CrBO5
_symmetry_space_group_name_H-M   'P 1'
_cell_length_a   4.72810400
_cell_length_b   4.86598500
_cell_length_c   16.26852400
_cell_angle_alpha   90.00000000
_cell_angle_beta   90.00000000
_cell_angle_gamma   90.00000000
_symmetry_Int_Tables_number   1
_chemical_formula_structural   Li3CrBO5
_chemical_formula_sum   'Li12 Cr4 B4 O20'
_cell_volume   374.28803057
_cell_formula_units_Z   4
loop_
 _symmetry_equiv_pos_site_id
 _symmetry_equiv_pos_as_xyz
  1  'x, y, z'
loop_
 _atom_site_type_symbol
 _atom_site_label
 _atom_site_symmetry_multiplicity
 _atom_site_fract_x
 _atom_site_fract_y
 _atom_site_fract_z
 _atom_site_occupancy
  Li  Li0  1  0.009111  0.699266  0.612286  1
  Li  Li1  1  0.009111  0.199266  0.887714  1
  Li  Li2  1  0.509373  0.320881  0.005669  1
  Li  Li3  1  0.509373  0.820881  0.494331  1
  Li  Li4  1  0.498387  0.342109  0.791894  1
  Li  Li5  1  0.498387  0.842109  0.708106  1
  Li  Li6  1  0.509111  0.300734  0.387714  1
  Li  Li7  1  0.509111  0.800734  0.112286  1
  Li  Li8  1  0.009373  0.679119  0.994331  1
  Li  Li9  1  0.009373  0.179119  0.505669  1
  Li  Li10  1  0.998387  0.157891  0.291894  1
  Li  Li11  1  0.998387  0.657891  0.208106  1
  Cr  Cr12  1  0.011015  0.170109  0.103177  1
  Cr  Cr13  1  0.011015  0.670109  0.396823  1
  Cr  Cr14  1  0.511015  0.329891  0.603177  1
  Cr  Cr15  1  0.511015  0.829891  0.896823  1
  B  B16  1  0.996295  0.189090  0.707506  1
  B  B17  1  0.996295  0.689090  0.792494  1
  B  B18  1  0.496295  0.310910  0.207506  1
  B  B19  1  0.496295  0.810910  0.292494  1
  O  O20  1  0.089398  0.390685  0.774057  1
  O  O21  1  0.089398  0.890685  0.725943  1
  O  O22  1  0.081924  0.319222  0.394536  1
  O  O23  1  0.081924  0.819222  0.105464  1
  O  O24  1  0.090110  0.292475  0.005354  1
  O  O25  1  0.090110  0.792475  0.494646  1
  O  O26  1  0.185169  0.310557  0.197332  1
  O  O27  1  0.185169  0.810557  0.302668  1
  O  O28  1  0.124217  0.273144  0.626862  1
  O  O29  1  0.124217  0.773144  0.873138  1
  O  O30  1  0.589398  0.609315  0.225943  1
  O  O31  1  0.589398  0.109315  0.274057  1
  O  O32  1  0.581924  0.680778  0.605464  1
  O  O33  1  0.581924  0.180778  0.894536  1
  O  O34  1  0.590110  0.207525  0.505354  1
  O  O35  1  0.590110  0.707525  0.994646  1
  O  O36  1  0.685169  0.189443  0.697332  1
  O  O37  1  0.685169  0.689443  0.802668  1
  O  O38  1  0.624217  0.226856  0.126862  1
  O  O39  1  0.624217  0.726856  0.373138  1
