# generated using pymatgen
data_LiFeSiO4
_symmetry_space_group_name_H-M   'P 1'
_cell_length_a   5.08246100
_cell_length_b   6.77752000
_cell_length_c   10.38572400
_cell_angle_alpha   90.00000000
_cell_angle_beta   90.00000000
_cell_angle_gamma   90.00000000
_symmetry_Int_Tables_number   1
_chemical_formula_structural   LiFeSiO4
_chemical_formula_sum   'Li4 Fe4 Si4 O16'
_cell_volume   357.75164523
_cell_formula_units_Z   4
loop_
 _symmetry_equiv_pos_site_id
 _symmetry_equiv_pos_as_xyz
  1  'x, y, z'
loop_
 _atom_site_type_symbol
 _atom_site_label
 _atom_site_symmetry_multiplicity
 _atom_site_fract_x
 _atom_site_fract_y
 _atom_site_fract_z
 _atom_site_occupancy
  Li  Li0  1  0.245438  0.006941  0.150018  1
  Li  Li1  1  0.745438  0.506941  0.349982  1
  Li  Li2  1  0.245438  0.493059  0.650018  1
  Li  Li3  1  0.745438  0.993059  0.849982  1
  Fe  Fe4  1  0.247177  0.508340  0.168991  1
  Fe  Fe5  1  0.747177  0.008340  0.331009  1
  Fe  Fe6  1  0.247177  0.991660  0.668991  1
  Fe  Fe7  1  0.747177  0.491660  0.831009  1
  Si  Si8  1  0.749269  0.265607  0.093196  1
  Si  Si9  1  0.249269  0.765607  0.406804  1
  Si  Si10  1  0.749269  0.234393  0.593196  1
  Si  Si11  1  0.249269  0.734393  0.906804  1
  O  O12  1  0.188865  0.734675  0.062226  1
  O  O13  1  0.069213  0.273351  0.120724  1
  O  O14  1  0.631737  0.062959  0.159494  1
  O  O15  1  0.614154  0.455130  0.168032  1
  O  O16  1  0.114154  0.955130  0.331968  1
  O  O17  1  0.131737  0.562959  0.340506  1
  O  O18  1  0.569213  0.773351  0.379276  1
  O  O19  1  0.688865  0.234675  0.437774  1
  O  O20  1  0.188865  0.765325  0.562226  1
  O  O21  1  0.069213  0.226649  0.620724  1
  O  O22  1  0.631737  0.437041  0.659494  1
  O  O23  1  0.614154  0.044870  0.668032  1
  O  O24  1  0.114154  0.544870  0.831968  1
  O  O25  1  0.131737  0.937041  0.840506  1
  O  O26  1  0.569213  0.726649  0.879276  1
  O  O27  1  0.688865  0.265325  0.937774  1
