# generated using pymatgen
data_LiCoPO4
_symmetry_space_group_name_H-M   'P 1'
_cell_length_a   4.82865500
_cell_length_b   7.44600300
_cell_length_c   4.82865500
_cell_angle_alpha   90.00003912
_cell_angle_beta   89.99996440
_cell_angle_gamma   90.00000769
_symmetry_Int_Tables_number   1
_chemical_formula_structural   LiCoPO4
_chemical_formula_sum   'Li2 Co2 P2 O8'
_cell_volume   173.61032917
_cell_formula_units_Z   2
loop_
 _symmetry_equiv_pos_site_id
 _symmetry_equiv_pos_as_xyz
  1  'x, y, z'
loop_
 _atom_site_type_symbol
 _atom_site_label
 _atom_site_symmetry_multiplicity
 _atom_site_fract_x
 _atom_site_fract_y
 _atom_site_fract_z
 _atom_site_occupancy
  Li  Li0  1  0.500000  0.000000  0.500000  1
  Li  Li1  1  0.000000  0.500000  0.000000  1
  Co  Co2  1  0.500000  0.500000  0.500000  1
  Co  Co3  1  0.000000  0.000000  0.000000  1
  P  P4  1  0.500000  0.250000  0.000000  1
  P  P5  1  0.000000  0.749999  0.500000  1
  O  O6  1  0.309369  0.131378  0.185047  1
  O  O7  1  0.809372  0.631381  0.685042  1
  O  O8  1  0.314959  0.368619  0.809372  1
  O  O9  1  0.814953  0.868622  0.309368  1
  O  O10  1  0.690631  0.131378  0.814954  1
  O  O11  1  0.190628  0.631381  0.314959  1
  O  O12  1  0.685041  0.368619  0.190628  1
  O  O13  1  0.185047  0.868623  0.690631  1
