# generated using pymatgen
data_Li3P2WO8
_symmetry_space_group_name_H-M   'P 1'
_cell_length_a   5.07913700
_cell_length_b   5.09500432
_cell_length_c   6.26778427
_cell_angle_alpha   89.97349197
_cell_angle_beta   90.38430369
_cell_angle_gamma   113.03003443
_symmetry_Int_Tables_number   1
_chemical_formula_structural   Li3P2WO8
_chemical_formula_sum   'Li3 P2 W1 O8'
_cell_volume   149.26807609
_cell_formula_units_Z   1
loop_
 _symmetry_equiv_pos_site_id
 _symmetry_equiv_pos_as_xyz
  1  'x, y, z'
loop_
 _atom_site_type_symbol
 _atom_site_label
 _atom_site_symmetry_multiplicity
 _atom_site_fract_x
 _atom_site_fract_y
 _atom_site_fract_z
 _atom_site_occupancy
  Li  Li0  1  0.172998  0.338952  0.280822  1
  Li  Li1  1  0.507885  0.008234  0.499884  1
  Li  Li2  1  0.835892  0.674235  0.717717  1
  P  P3  1  0.149840  0.353585  0.764720  1
  P  P4  1  0.854086  0.654549  0.234964  1
  W  W5  1  0.501837  0.003822  0.999967  1
  O  O6  1  0.747402  0.763800  0.428072  1
  O  O7  1  0.756365  0.748591  0.022957  1
  O  O8  1  0.253634  0.688885  0.762410  1
  O  O9  1  0.812694  0.244071  0.759006  1
  O  O10  1  0.190722  0.760641  0.239296  1
  O  O11  1  0.746582  0.318882  0.239458  1
  O  O12  1  0.245486  0.257158  0.976480  1
  O  O13  1  0.260537  0.249155  0.571256  1
