# generated using pymatgen
data_Li2NiSnO4
_symmetry_space_group_name_H-M   'P 1'
_cell_length_a   5.98818842
_cell_length_b   5.98816700
_cell_length_c   9.85296215
_cell_angle_alpha   72.30954786
_cell_angle_beta   107.69047143
_cell_angle_gamma   89.99880530
_symmetry_Int_Tables_number   1
_chemical_formula_structural   Li2NiSnO4
_chemical_formula_sum   'Li8 Ni4 Sn4 O16'
_cell_volume   319.02106682
_cell_formula_units_Z   4
loop_
 _symmetry_equiv_pos_site_id
 _symmetry_equiv_pos_as_xyz
  1  'x, y, z'
loop_
 _atom_site_type_symbol
 _atom_site_label
 _atom_site_symmetry_multiplicity
 _atom_site_fract_x
 _atom_site_fract_y
 _atom_site_fract_z
 _atom_site_occupancy
  Li  Li0  1  0.874998  0.625001  0.250000  1
  Li  Li1  1  0.374998  0.125001  0.250000  1
  Li  Li2  1  0.624999  0.375001  0.750000  1
  Li  Li3  1  0.124998  0.875001  0.750000  1
  Li  Li4  1  0.500000  0.000000  0.000001  1
  Li  Li5  1  0.999999  0.500000  0.000001  1
  Li  Li6  1  0.249999  0.750000  0.500001  1
  Li  Li7  1  0.749999  0.250000  0.500000  1
  Ni  Ni8  1  0.749995  0.750000  0.500003  1
  Ni  Ni9  1  0.499995  0.499998  0.999999  1
  Ni  Ni10  1  0.250002  0.250000  0.499999  1
  Ni  Ni11  1  0.000017  0.000004  0.999999  1
  Sn  Sn12  1  0.375007  0.624998  0.250000  1
  Sn  Sn13  1  0.875005  0.124996  0.249999  1
  Sn  Sn14  1  0.125002  0.374995  0.750001  1
  Sn  Sn15  1  0.625008  0.874994  0.750001  1
  O  O16  1  0.489682  0.510320  0.479357  1
  O  O17  1  0.989674  0.010322  0.479357  1
  O  O18  1  0.239677  0.260325  0.979357  1
  O  O19  1  0.739679  0.760317  0.979356  1
  O  O20  1  0.260324  0.739681  0.020643  1
  O  O21  1  0.760316  0.239679  0.020642  1
  O  O22  1  0.010320  0.489684  0.520642  1
  O  O23  1  0.510319  0.989676  0.520643  1
  O  O24  1  0.631544  0.868455  0.263093  1
  O  O25  1  0.131543  0.368455  0.263091  1
  O  O26  1  0.381544  0.618456  0.763093  1
  O  O27  1  0.881544  0.118455  0.763092  1
  O  O28  1  0.618453  0.381547  0.236907  1
  O  O29  1  0.118453  0.881547  0.236908  1
  O  O30  1  0.368454  0.131546  0.736909  1
  O  O31  1  0.868453  0.631546  0.736907  1
