# generated using pymatgen
data_Li2AlFeO4
_symmetry_space_group_name_H-M   'P 1'
_cell_length_a   5.35259929
_cell_length_b   5.35259787
_cell_length_c   6.39983300
_cell_angle_alpha   90.00000000
_cell_angle_beta   90.00000000
_cell_angle_gamma   89.41539218
_symmetry_Int_Tables_number   1
_chemical_formula_structural   Li2AlFeO4
_chemical_formula_sum   'Li4 Al2 Fe2 O8'
_cell_volume   183.34766510
_cell_formula_units_Z   2
loop_
 _symmetry_equiv_pos_site_id
 _symmetry_equiv_pos_as_xyz
  1  'x, y, z'
loop_
 _atom_site_type_symbol
 _atom_site_label
 _atom_site_symmetry_multiplicity
 _atom_site_fract_x
 _atom_site_fract_y
 _atom_site_fract_z
 _atom_site_occupancy
  Li  Li0  1  0.316383  0.683617  0.500000  1
  Li  Li1  1  0.683617  0.316383  0.000000  1
  Li  Li2  1  0.185454  0.185454  0.750000  1
  Li  Li3  1  0.814546  0.814546  0.250000  1
  Al  Al4  1  0.325875  0.674125  0.000000  1
  Al  Al5  1  0.674125  0.325876  0.500000  1
  Fe  Fe6  1  0.824882  0.824883  0.750000  1
  Fe  Fe7  1  0.175119  0.175118  0.250000  1
  O  O8  1  0.200857  0.819074  0.227484  1
  O  O9  1  0.180929  0.799142  0.772516  1
  O  O10  1  0.799143  0.180928  0.727484  1
  O  O11  1  0.819074  0.200858  0.272516  1
  O  O12  1  0.295584  0.342141  0.010570  1
  O  O13  1  0.657856  0.704414  0.989432  1
  O  O14  1  0.342141  0.295584  0.489430  1
  O  O15  1  0.704414  0.657856  0.510568  1
