# generated using pymatgen
data_Li4CoSn3(PO4)4
_symmetry_space_group_name_H-M   'P 1'
_cell_length_a   6.76970200
_cell_length_b   4.85562900
_cell_length_c   10.93427889
_cell_angle_alpha   88.79380630
_cell_angle_beta   90.00000000
_cell_angle_gamma   90.00000000
_symmetry_Int_Tables_number   1
_chemical_formula_structural   Li4CoSn3(PO4)4
_chemical_formula_sum   'Li4 Co1 Sn3 P4 O16'
_cell_volume   359.34280246
_cell_formula_units_Z   1
loop_
 _symmetry_equiv_pos_site_id
 _symmetry_equiv_pos_as_xyz
  1  'x, y, z'
loop_
 _atom_site_type_symbol
 _atom_site_label
 _atom_site_symmetry_multiplicity
 _atom_site_fract_x
 _atom_site_fract_y
 _atom_site_fract_z
 _atom_site_occupancy
  Li  Li0  1  0.273741  0.966819  0.007539  1
  Li  Li1  1  0.726259  0.966819  0.007539  1
  Li  Li2  1  0.756864  0.497781  0.487178  1
  Li  Li3  1  0.243136  0.497781  0.487178  1
  Co  Co4  1  0.000000  0.035556  0.271565  1
  Sn  Sn5  1  0.000000  0.466454  0.781533  1
  Sn  Sn6  1  0.500000  0.541791  0.217769  1
  Sn  Sn7  1  0.500000  0.942857  0.704022  1
  P  P8  1  0.500000  0.095542  0.416282  1
  P  P9  1  0.500000  0.380313  0.928880  1
  P  P10  1  0.000000  0.623202  0.101580  1
  P  P11  1  0.000000  0.915484  0.556407  1
  O  O12  1  0.500000  0.236674  0.546301  1
  O  O13  1  0.313644  0.213707  0.347703  1
  O  O14  1  0.686356  0.213707  0.347703  1
  O  O15  1  0.000000  0.231617  0.554450  1
  O  O16  1  0.000000  0.308636  0.120414  1
  O  O17  1  0.314748  0.274447  0.856955  1
  O  O18  1  0.685252  0.274447  0.856955  1
  O  O19  1  0.500000  0.221149  0.055155  1
  O  O20  1  0.000000  0.717856  0.963238  1
  O  O21  1  0.819340  0.768481  0.162199  1
  O  O22  1  0.180660  0.768481  0.162199  1
  O  O23  1  0.500000  0.691974  0.948919  1
  O  O24  1  0.500000  0.780563  0.431015  1
  O  O25  1  0.817295  0.788420  0.626913  1
  O  O26  1  0.182705  0.788420  0.626913  1
  O  O27  1  0.000000  0.791024  0.425495  1
