# generated using pymatgen
data_Li2CrO3
_symmetry_space_group_name_H-M   'P 1'
_cell_length_a   5.02372488
_cell_length_b   5.02372488
_cell_length_c   4.99943360
_cell_angle_alpha   79.25869654
_cell_angle_beta   79.25869654
_cell_angle_gamma   118.27359371
_symmetry_Int_Tables_number   1
_chemical_formula_structural   Li2CrO3
_chemical_formula_sum   'Li4 Cr2 O6'
_cell_volume   103.52841244
_cell_formula_units_Z   2
loop_
 _symmetry_equiv_pos_site_id
 _symmetry_equiv_pos_as_xyz
  1  'x, y, z'
loop_
 _atom_site_type_symbol
 _atom_site_label
 _atom_site_symmetry_multiplicity
 _atom_site_fract_x
 _atom_site_fract_y
 _atom_site_fract_z
 _atom_site_occupancy
  Li  Li0  1  0.753529  0.263070  0.491204  1
  Li  Li1  1  0.431977  0.596569  0.495693  1
  Li  Li2  1  0.596569  0.431977  0.995693  1
  Li  Li3  1  0.263070  0.753529  0.991204  1
  Cr  Cr4  1  0.091848  0.909841  0.503618  1
  Cr  Cr5  1  0.909841  0.091848  0.003618  1
  O  O6  1  0.710509  0.862079  0.752099  1
  O  O7  1  0.862079  0.710509  0.252099  1
  O  O8  1  0.011796  0.519504  0.730976  1
  O  O9  1  0.296233  0.155444  0.724210  1
  O  O10  1  0.519504  0.011796  0.230976  1
  O  O11  1  0.155444  0.296233  0.224210  1
