# generated using pymatgen
data_Li3MgPCO7
_symmetry_space_group_name_H-M   'P 1'
_cell_length_a   6.42488900
_cell_length_b   5.06750000
_cell_length_c   8.31508597
_cell_angle_alpha   87.84404840
_cell_angle_beta   90.00000000
_cell_angle_gamma   90.00000000
_symmetry_Int_Tables_number   1
_chemical_formula_structural   Li3MgPCO7
_chemical_formula_sum   'Li6 Mg2 P2 C2 O14'
_cell_volume   270.53197231
_cell_formula_units_Z   2
loop_
 _symmetry_equiv_pos_site_id
 _symmetry_equiv_pos_as_xyz
  1  'x, y, z'
loop_
 _atom_site_type_symbol
 _atom_site_label
 _atom_site_symmetry_multiplicity
 _atom_site_fract_x
 _atom_site_fract_y
 _atom_site_fract_z
 _atom_site_occupancy
  Li  Li0  1  0.497869  0.017436  0.000389  1
  Li  Li1  1  0.183165  0.456231  0.172141  1
  Li  Li2  1  0.443083  0.446821  0.497916  1
  Li  Li3  1  0.943083  0.553179  0.502084  1
  Li  Li4  1  0.683165  0.543769  0.827859  1
  Li  Li5  1  0.997869  0.982564  0.999611  1
  Mg  Mg6  1  0.748696  0.023307  0.280509  1
  Mg  Mg7  1  0.248696  0.976693  0.719491  1
  P  P8  1  0.247267  0.963508  0.332834  1
  P  P9  1  0.747267  0.036492  0.667166  1
  C  C10  1  0.740424  0.502835  0.139480  1
  C  C11  1  0.240424  0.497165  0.860520  1
  O  O12  1  0.730456  0.324470  0.031026  1
  O  O13  1  0.769198  0.748756  0.094826  1
  O  O14  1  0.062171  0.089485  0.234169  1
  O  O15  1  0.443495  0.009566  0.229680  1
  O  O16  1  0.726622  0.434660  0.291531  1
  O  O17  1  0.207607  0.663734  0.367226  1
  O  O18  1  0.274548  0.109148  0.492829  1
  O  O19  1  0.774548  0.890852  0.507171  1
  O  O20  1  0.707607  0.336266  0.632774  1
  O  O21  1  0.226622  0.565340  0.708469  1
  O  O22  1  0.943495  0.990434  0.770320  1
  O  O23  1  0.562171  0.910515  0.765831  1
  O  O24  1  0.269198  0.251244  0.905174  1
  O  O25  1  0.230456  0.675530  0.968974  1
