# generated using pymatgen
data_FeOF
_symmetry_space_group_name_H-M   'P 1'
_cell_length_a   5.59112823
_cell_length_b   5.59112823
_cell_length_c   5.59112818
_cell_angle_alpha   55.67780868
_cell_angle_beta   55.67780868
_cell_angle_gamma   55.67780510
_symmetry_Int_Tables_number   1
_chemical_formula_structural   FeOF
_chemical_formula_sum   'Fe3 O3 F3'
_cell_volume   111.19688179
_cell_formula_units_Z   3
loop_
 _symmetry_equiv_pos_site_id
 _symmetry_equiv_pos_as_xyz
  1  'x, y, z'
loop_
 _atom_site_type_symbol
 _atom_site_label
 _atom_site_symmetry_multiplicity
 _atom_site_fract_x
 _atom_site_fract_y
 _atom_site_fract_z
 _atom_site_occupancy
  Fe  Fe0  1  0.860792  0.860792  0.860792  1
  Fe  Fe1  1  0.642075  0.642075  0.642075  1
  Fe  Fe2  1  0.326731  0.326731  0.326731  1
  O  O3  1  0.589927  0.935863  0.248280  1
  O  O4  1  0.248280  0.589927  0.935863  1
  O  O5  1  0.935863  0.248280  0.589927  1
  F  F6  1  0.060898  0.692774  0.493860  1
  F  F7  1  0.692774  0.493860  0.060898  1
  F  F8  1  0.493860  0.060898  0.692774  1
