# generated using pymatgen
data_Sr3GeO5
_symmetry_space_group_name_H-M   'P 1'
_cell_length_a   7.52182026
_cell_length_b   7.52182026
_cell_length_c   7.52182026
_cell_angle_alpha   124.71549957
_cell_angle_beta   124.71549957
_cell_angle_gamma   82.00979454
_symmetry_Int_Tables_number   1
_chemical_formula_structural   Sr3GeO5
_chemical_formula_sum   'Sr6 Ge2 O10'
_cell_volume   276.51434904
_cell_formula_units_Z   2
loop_
 _symmetry_equiv_pos_site_id
 _symmetry_equiv_pos_as_xyz
  1  'x, y, z'
loop_
 _atom_site_type_symbol
 _atom_site_label
 _atom_site_symmetry_multiplicity
 _atom_site_fract_x
 _atom_site_fract_y
 _atom_site_fract_z
 _atom_site_occupancy
  Sr  Sr0  1  0.505338  0.505338  0.000000  1
  Sr  Sr1  1  0.005338  0.005338  0.000000  1
  Sr  Sr2  1  0.068725  0.568725  0.135248  1
  Sr  Sr3  1  0.568725  0.433478  0.500000  1
  Sr  Sr4  1  0.433478  0.933478  0.864752  1
  Sr  Sr5  1  0.933478  0.068725  0.500000  1
  Ge  Ge6  1  0.499536  0.999536  0.500000  1
  Ge  Ge7  1  0.999536  0.499536  0.500000  1
  O  O8  1  0.242829  0.242829  0.000000  1
  O  O9  1  0.742829  0.742829  0.000000  1
  O  O10  1  0.454975  0.954975  0.218041  1
  O  O11  1  0.954975  0.736935  0.500000  1
  O  O12  1  0.760086  0.260086  0.218496  1
  O  O13  1  0.260086  0.041590  0.500000  1
  O  O14  1  0.736935  0.236935  0.781959  1
  O  O15  1  0.236935  0.454975  0.500000  1
  O  O16  1  0.041590  0.541590  0.781504  1
  O  O17  1  0.541590  0.760086  0.500000  1
