# generated using pymatgen
data_Cr4OF11
_symmetry_space_group_name_H-M   'P 1'
_cell_length_a   5.09894800
_cell_length_b   5.32814174
_cell_length_c   8.74449812
_cell_angle_alpha   74.73789697
_cell_angle_beta   90.00000000
_cell_angle_gamma   61.41303176
_symmetry_Int_Tables_number   1
_chemical_formula_structural   Cr4OF11
_chemical_formula_sum   'Cr4 O1 F11'
_cell_volume   199.01382801
_cell_formula_units_Z   1
loop_
 _symmetry_equiv_pos_site_id
 _symmetry_equiv_pos_as_xyz
  1  'x, y, z'
loop_
 _atom_site_type_symbol
 _atom_site_label
 _atom_site_symmetry_multiplicity
 _atom_site_fract_x
 _atom_site_fract_y
 _atom_site_fract_z
 _atom_site_occupancy
  Cr  Cr0  1  0.745144  0.513438  0.257060  1
  Cr  Cr1  1  0.508581  0.986562  0.492940  1
  Cr  Cr2  1  0.250132  0.497275  0.748828  1
  Cr  Cr3  1  0.997406  0.002725  0.001172  1
  O  O4  1  0.748933  0.750000  0.375000  1
  F  F5  1  0.813480  0.750542  0.683736  1
  F  F6  1  0.814022  0.749458  0.066264  1
  F  F7  1  0.754972  0.254901  0.128245  1
  F  F8  1  0.685454  0.249231  0.814397  1
  F  F9  1  0.682251  0.250769  0.435131  1
  F  F10  1  0.312823  0.749600  0.562828  1
  F  F11  1  0.312423  0.750400  0.187172  1
  F  F12  1  0.246806  0.750000  0.875000  1
  F  F13  1  0.259873  0.245099  0.621755  1
  F  F14  1  0.183019  0.249231  0.314869  1
  F  F15  1  0.184684  0.250769  0.935603  1
