# generated using pymatgen
data_Li5VO3F2
_symmetry_space_group_name_H-M   'P 1'
_cell_length_a   3.92055906
_cell_length_b   18.52505974
_cell_length_c   6.06597906
_cell_angle_alpha   84.36761093
_cell_angle_beta   89.98110895
_cell_angle_gamma   90.00393534
_symmetry_Int_Tables_number   1
_chemical_formula_structural   Li5VO3F2
_chemical_formula_sum   'Li20 V4 O12 F8'
_cell_volume   438.43647783
_cell_formula_units_Z   4
loop_
 _symmetry_equiv_pos_site_id
 _symmetry_equiv_pos_as_xyz
  1  'x, y, z'
loop_
 _atom_site_type_symbol
 _atom_site_label
 _atom_site_symmetry_multiplicity
 _atom_site_fract_x
 _atom_site_fract_y
 _atom_site_fract_z
 _atom_site_occupancy
  Li  Li0  1  0.998244  0.658982  0.505983  1
  Li  Li1  1  0.498500  0.909100  0.756065  1
  Li  Li2  1  0.998494  0.159007  0.006264  1
  Li  Li3  1  0.498763  0.409151  0.257202  1
  Li  Li4  1  0.997916  0.654503  0.999928  1
  Li  Li5  1  0.498161  0.904503  0.249069  1
  Li  Li6  1  0.998134  0.154515  0.499645  1
  Li  Li7  1  0.498239  0.404517  0.749889  1
  Li  Li8  1  0.498203  0.608059  0.293724  1
  Li  Li9  1  0.998494  0.858134  0.543287  1
  Li  Li10  1  0.498483  0.108117  0.793560  1
  Li  Li11  1  0.998709  0.358195  0.043918  1
  Li  Li12  1  0.497855  0.592289  0.717814  1
  Li  Li13  1  0.998057  0.842258  0.968187  1
  Li  Li14  1  0.498031  0.092244  0.218739  1
  Li  Li15  1  0.998246  0.342278  0.469200  1
  Li  Li16  1  0.999498  0.517634  0.057143  1
  Li  Li17  1  0.499347  0.767280  0.307289  1
  Li  Li18  1  0.999486  0.017710  0.556915  1
  Li  Li19  1  0.499578  0.267697  0.807418  1
  V  V20  1  0.997897  0.500365  0.492627  1
  V  V21  1  0.498041  0.750577  0.742901  1
  V  V22  1  0.997979  0.000586  0.992814  1
  V  V23  1  0.498034  0.250373  0.243298  1
  O  O24  1  0.498186  0.682230  0.503653  1
  O  O25  1  0.998428  0.932504  0.754010  1
  O  O26  1  0.498422  0.182431  0.004784  1
  O  O27  1  0.998688  0.432377  0.254876  1
  O  O28  1  0.497955  0.500534  0.567591  1
  O  O29  1  0.997933  0.750611  0.817285  1
  O  O30  1  0.497966  0.000706  0.068114  1
  O  O31  1  0.998046  0.250608  0.319279  1
  O  O32  1  0.998105  0.585742  0.275290  1
  O  O33  1  0.498349  0.835791  0.526727  1
  O  O34  1  0.998345  0.085915  0.776269  1
  O  O35  1  0.498542  0.335809  0.026558  1
  F  F36  1  0.497816  0.653964  0.979932  1
  F  F37  1  0.998015  0.903506  0.230792  1
  F  F38  1  0.498012  0.153131  0.480970  1
  F  F39  1  0.998073  0.403466  0.731435  1
  F  F40  1  0.997813  0.575636  0.777320  1
  F  F41  1  0.498006  0.826091  0.027740  1
  F  F42  1  0.997977  0.075901  0.277239  1
  F  F43  1  0.498155  0.325925  0.527823  1
