# generated using pymatgen
data_LiVF6
_symmetry_space_group_name_H-M   'P 1'
_cell_length_a   5.43574100
_cell_length_b   5.43574100
_cell_length_c   9.86627608
_cell_angle_alpha   89.21483971
_cell_angle_beta   89.21483971
_cell_angle_gamma   59.66801567
_symmetry_Int_Tables_number   1
_chemical_formula_structural   LiVF6
_chemical_formula_sum   'Li2 V2 F12'
_cell_volume   251.58493325
_cell_formula_units_Z   2
loop_
 _symmetry_equiv_pos_site_id
 _symmetry_equiv_pos_as_xyz
  1  'x, y, z'
loop_
 _atom_site_type_symbol
 _atom_site_label
 _atom_site_symmetry_multiplicity
 _atom_site_fract_x
 _atom_site_fract_y
 _atom_site_fract_z
 _atom_site_occupancy
  Li  Li0  1  0.011754  0.340863  0.174327  1
  Li  Li1  1  0.340863  0.011754  0.674327  1
  V  V2  1  0.032017  0.673156  0.853131  1
  V  V3  1  0.673156  0.032017  0.353131  1
  F  F4  1  0.392544  0.449561  0.900707  1
  F  F5  1  0.542428  0.921989  0.500842  1
  F  F6  1  0.066828  0.382371  0.744347  1
  F  F7  1  0.382371  0.066828  0.244347  1
  F  F8  1  0.140645  0.806660  0.706174  1
  F  F9  1  0.999140  0.965369  0.945699  1
  F  F10  1  0.965369  0.999140  0.445699  1
  F  F11  1  0.806660  0.140645  0.206174  1
  F  F12  1  0.656946  0.875241  0.800127  1
  F  F13  1  0.875241  0.656946  0.300127  1
  F  F14  1  0.921989  0.542428  0.000842  1
  F  F15  1  0.449561  0.392544  0.400707  1
