# generated using pymatgen
data_Li3FeOF4
_symmetry_space_group_name_H-M   'P 1'
_cell_length_a   5.29856269
_cell_length_b   7.49639278
_cell_length_c   5.39980545
_cell_angle_alpha   106.91706056
_cell_angle_beta   94.55849247
_cell_angle_gamma   110.67773419
_symmetry_Int_Tables_number   1
_chemical_formula_structural   Li3FeOF4
_chemical_formula_sum   'Li6 Fe2 O2 F8'
_cell_volume   187.96034705
_cell_formula_units_Z   2
loop_
 _symmetry_equiv_pos_site_id
 _symmetry_equiv_pos_as_xyz
  1  'x, y, z'
loop_
 _atom_site_type_symbol
 _atom_site_label
 _atom_site_symmetry_multiplicity
 _atom_site_fract_x
 _atom_site_fract_y
 _atom_site_fract_z
 _atom_site_occupancy
  Li  Li0  1  0.509771  0.284056  0.426097  1
  Li  Li1  1  0.009765  0.784054  0.426086  1
  Li  Li2  1  0.950583  0.205103  0.630054  1
  Li  Li3  1  0.450594  0.705102  0.630054  1
  Li  Li4  1  0.472996  0.880396  0.178217  1
  Li  Li5  1  0.972975  0.380384  0.178211  1
  Fe  Fe6  1  0.990992  0.976592  0.984634  1
  Fe  Fe7  1  0.490971  0.476598  0.984672  1
  O  O8  1  0.195351  0.244738  0.993590  1
  O  O9  1  0.695373  0.744757  0.993589  1
  F  F10  1  0.726769  0.510436  0.322224  1
  F  F11  1  0.226777  0.010436  0.322213  1
  F  F12  1  0.772411  0.139997  0.256440  1
  F  F13  1  0.272417  0.639991  0.256434  1
  F  F14  1  0.715465  0.338360  0.793753  1
  F  F15  1  0.215477  0.838349  0.793740  1
  F  F16  1  0.783303  0.922758  0.615741  1
  F  F17  1  0.283300  0.422761  0.615747  1
