# generated using pymatgen
data_LiVO3
_symmetry_space_group_name_H-M   'P 1'
_cell_length_a   4.95027624
_cell_length_b   4.95027624
_cell_length_c   5.36632691
_cell_angle_alpha   77.40280801
_cell_angle_beta   77.40280801
_cell_angle_gamma   115.82903879
_symmetry_Int_Tables_number   1
_chemical_formula_structural   LiVO3
_chemical_formula_sum   'Li2 V2 O6'
_cell_volume   107.92854975
_cell_formula_units_Z   2
loop_
 _symmetry_equiv_pos_site_id
 _symmetry_equiv_pos_as_xyz
  1  'x, y, z'
loop_
 _atom_site_type_symbol
 _atom_site_label
 _atom_site_symmetry_multiplicity
 _atom_site_fract_x
 _atom_site_fract_y
 _atom_site_fract_z
 _atom_site_occupancy
  Li  Li0  1  0.506660  0.493340  0.500000  1
  Li  Li1  1  0.868570  0.131430  0.500000  1
  V  V2  1  0.322173  0.677827  0.000000  1
  V  V3  1  0.673923  0.326077  0.000000  1
  O  O4  1  0.670076  0.681482  0.764604  1
  O  O5  1  0.318518  0.329924  0.235396  1
  O  O6  1  0.904673  0.525253  0.218764  1
  O  O7  1  0.474747  0.095327  0.781236  1
  O  O8  1  0.536030  0.917221  0.211574  1
  O  O9  1  0.082779  0.463970  0.788426  1
