# generated using pymatgen
data_Na4MnO4
_symmetry_space_group_name_H-M   'P 1'
_cell_length_a   6.33791902
_cell_length_b   7.58795331
_cell_length_c   11.40636201
_cell_angle_alpha   90.00365575
_cell_angle_beta   90.00147662
_cell_angle_gamma   89.61487267
_symmetry_Int_Tables_number   1
_chemical_formula_structural   Na4MnO4
_chemical_formula_sum   'Na16 Mn4 O16'
_cell_volume   548.54047050
_cell_formula_units_Z   4
loop_
 _symmetry_equiv_pos_site_id
 _symmetry_equiv_pos_as_xyz
  1  'x, y, z'
loop_
 _atom_site_type_symbol
 _atom_site_label
 _atom_site_symmetry_multiplicity
 _atom_site_fract_x
 _atom_site_fract_y
 _atom_site_fract_z
 _atom_site_occupancy
  Na  Na0  1  0.045058  0.665390  0.447145  1
  Na  Na1  1  0.045109  0.665463  0.947230  1
  Na  Na2  1  0.544916  0.165433  0.052798  1
  Na  Na3  1  0.545156  0.165420  0.552755  1
  Na  Na4  1  0.308625  0.726141  0.155628  1
  Na  Na5  1  0.308705  0.726159  0.655633  1
  Na  Na6  1  0.808647  0.226154  0.344405  1
  Na  Na7  1  0.808644  0.226184  0.844377  1
  Na  Na8  1  0.227539  0.315080  0.189342  1
  Na  Na9  1  0.227714  0.315134  0.689389  1
  Na  Na10  1  0.727574  0.815050  0.310651  1
  Na  Na11  1  0.727719  0.815159  0.810564  1
  Na  Na12  1  0.262164  0.001271  0.348669  1
  Na  Na13  1  0.262071  0.001391  0.848798  1
  Na  Na14  1  0.762137  0.501242  0.151330  1
  Na  Na15  1  0.762148  0.501315  0.651231  1
  Mn  Mn16  1  0.989947  0.996471  0.591100  1
  Mn  Mn17  1  0.489897  0.496564  0.908869  1
  Mn  Mn18  1  0.989534  0.996423  0.091270  1
  Mn  Mn19  1  0.489765  0.496431  0.408797  1
  O  O20  1  0.262492  0.025138  0.129240  1
  O  O21  1  0.262863  0.025226  0.629234  1
  O  O22  1  0.762681  0.525229  0.370709  1
  O  O23  1  0.762848  0.525223  0.870768  1
  O  O24  1  0.434531  0.476252  0.063369  1
  O  O25  1  0.434376  0.476197  0.563262  1
  O  O26  1  0.934543  0.976258  0.436578  1
  O  O27  1  0.934139  0.976170  0.936863  1
  O  O28  1  0.432987  0.269218  0.363163  1
  O  O29  1  0.432938  0.269323  0.863203  1
  O  O30  1  0.932864  0.769169  0.136882  1
  O  O31  1  0.933070  0.769264  0.636751  1
  O  O32  1  0.380144  0.704261  0.349845  1
  O  O33  1  0.380428  0.704407  0.849819  1
  O  O34  1  0.879537  0.204286  0.150174  1
  O  O35  1  0.880418  0.204291  0.650155  1
