# generated using pymatgen
data_Li7Mn(OF)3
_symmetry_space_group_name_H-M   'P 1'
_cell_length_a   6.32145984
_cell_length_b   10.03350181
_cell_length_c   9.37050833
_cell_angle_alpha   102.49095592
_cell_angle_beta   73.80645304
_cell_angle_gamma   93.22415578
_symmetry_Int_Tables_number   1
_chemical_formula_structural   Li7Mn(OF)3
_chemical_formula_sum   'Li28 Mn4 O12 F12'
_cell_volume   557.24213809
_cell_formula_units_Z   4
loop_
 _symmetry_equiv_pos_site_id
 _symmetry_equiv_pos_as_xyz
  1  'x, y, z'
loop_
 _atom_site_type_symbol
 _atom_site_label
 _atom_site_symmetry_multiplicity
 _atom_site_fract_x
 _atom_site_fract_y
 _atom_site_fract_z
 _atom_site_occupancy
  Li  Li0  1  0.357208  0.986755  0.113707  1
  Li  Li1  1  0.857156  0.486763  0.113696  1
  Li  Li2  1  0.607302  0.236745  0.613699  1
  Li  Li3  1  0.107319  0.736751  0.613702  1
  Li  Li4  1  0.653061  0.006420  0.234433  1
  Li  Li5  1  0.153010  0.506452  0.234437  1
  Li  Li6  1  0.903057  0.256336  0.734377  1
  Li  Li7  1  0.402940  0.756357  0.734460  1
  Li  Li8  1  0.030479  0.018380  0.339957  1
  Li  Li9  1  0.530567  0.518437  0.339864  1
  Li  Li10  1  0.280512  0.268192  0.839712  1
  Li  Li11  1  0.780508  0.768195  0.839775  1
  Li  Li12  1  0.701814  0.712039  0.174573  1
  Li  Li13  1  0.201877  0.212029  0.174578  1
  Li  Li14  1  0.951996  0.961856  0.674657  1
  Li  Li15  1  0.451981  0.461869  0.674681  1
  Li  Li16  1  0.127235  0.737915  0.250401  1
  Li  Li17  1  0.627384  0.237885  0.250283  1
  Li  Li18  1  0.377432  0.987630  0.750589  1
  Li  Li19  1  0.877401  0.487605  0.750599  1
  Li  Li20  1  0.332523  0.995601  0.450624  1
  Li  Li21  1  0.832552  0.495571  0.450616  1
  Li  Li22  1  0.582337  0.245470  0.950366  1
  Li  Li23  1  0.082301  0.745485  0.950399  1
  Li  Li24  1  0.368676  0.751889  0.389151  1
  Li  Li25  1  0.868697  0.251872  0.389180  1
  Li  Li26  1  0.618966  0.001824  0.889164  1
  Li  Li27  1  0.118929  0.501817  0.889159  1
  Mn  Mn28  1  0.278290  0.277267  0.490079  1
  Mn  Mn29  1  0.528263  0.526886  0.990302  1
  Mn  Mn30  1  0.777809  0.777146  0.490275  1
  Mn  Mn31  1  0.028139  0.027163  0.990401  1
  O  O32  1  0.354376  0.111688  0.302503  1
  O  O33  1  0.854370  0.611687  0.302516  1
  O  O34  1  0.604395  0.361670  0.802457  1
  O  O35  1  0.104406  0.861687  0.802487  1
  O  O36  1  0.396268  0.624712  0.210643  1
  O  O37  1  0.896221  0.124729  0.210693  1
  O  O38  1  0.646414  0.874480  0.710734  1
  O  O39  1  0.146433  0.374564  0.710616  1
  O  O40  1  0.100159  0.859274  0.461986  1
  O  O41  1  0.600263  0.359339  0.461928  1
  O  O42  1  0.350208  0.109238  0.962001  1
  O  O43  1  0.850203  0.609231  0.961990  1
  F  F44  1  0.643482  0.905245  0.037466  1
  F  F45  1  0.143276  0.405207  0.037546  1
  F  F46  1  0.893541  0.155327  0.537468  1
  F  F47  1  0.393874  0.655278  0.537300  1
  F  F48  1  0.114879  0.862390  0.130907  1
  F  F49  1  0.614891  0.362402  0.130882  1
  F  F50  1  0.366708  0.111819  0.631152  1
  F  F51  1  0.866711  0.611824  0.631155  1
  F  F52  1  0.605072  0.877410  0.357910  1
  F  F53  1  0.105086  0.377403  0.357900  1
  F  F54  1  0.855075  0.127415  0.857915  1
  F  F55  1  0.355069  0.627411  0.857903  1
