# generated using pymatgen
data_LiVPO4
_symmetry_space_group_name_H-M   'P 1'
_cell_length_a   5.49388022
_cell_length_b   6.42395527
_cell_length_c   5.49388022
_cell_angle_alpha   76.89571897
_cell_angle_beta   61.97928120
_cell_angle_gamma   103.10428103
_symmetry_Int_Tables_number   1
_chemical_formula_structural   LiVPO4
_chemical_formula_sum   'Li2 V2 P2 O8'
_cell_volume   153.67623106
_cell_formula_units_Z   2
loop_
 _symmetry_equiv_pos_site_id
 _symmetry_equiv_pos_as_xyz
  1  'x, y, z'
loop_
 _atom_site_type_symbol
 _atom_site_label
 _atom_site_symmetry_multiplicity
 _atom_site_fract_x
 _atom_site_fract_y
 _atom_site_fract_z
 _atom_site_occupancy
  Li  Li0  1  0.809733  0.250000  0.809733  1
  Li  Li1  1  0.559734  0.750000  0.559734  1
  V  V2  1  0.183974  0.749997  0.183979  1
  V  V3  1  0.433980  0.250003  0.433976  1
  P  P4  1  0.122322  0.250000  0.122322  1
  P  P5  1  0.872324  0.750000  0.872324  1
  O  O6  1  0.788112  0.105161  0.265695  1
  O  O7  1  0.870858  0.605162  0.682952  1
  O  O8  1  0.265695  0.394838  0.788112  1
  O  O9  1  0.682952  0.894838  0.870858  1
  O  O10  1  0.303559  0.099874  0.151600  1
  O  O11  1  0.751468  0.599872  0.203687  1
  O  O12  1  0.151600  0.400126  0.303559  1
  O  O13  1  0.203687  0.900128  0.751468  1
