# generated using pymatgen
data_PNO
_symmetry_space_group_name_H-M   'P 1'
_cell_length_a   7.18556730
_cell_length_b   7.18556730
_cell_length_c   8.84416766
_cell_angle_alpha   53.70370129
_cell_angle_beta   53.70370129
_cell_angle_gamma   38.04559485
_symmetry_Int_Tables_number   1
_chemical_formula_structural   PNO
_chemical_formula_sum   'P6 N6 O6'
_cell_volume   219.42661279
_cell_formula_units_Z   6
loop_
 _symmetry_equiv_pos_site_id
 _symmetry_equiv_pos_as_xyz
  1  'x, y, z'
loop_
 _atom_site_type_symbol
 _atom_site_label
 _atom_site_symmetry_multiplicity
 _atom_site_fract_x
 _atom_site_fract_y
 _atom_site_fract_z
 _atom_site_occupancy
  P  P0  1  0.001043  0.989722  0.250633  1
  P  P1  1  0.080084  0.606839  0.149680  1
  P  P2  1  0.606839  0.080084  0.649680  1
  P  P3  1  0.397098  0.926464  0.350767  1
  P  P4  1  0.926464  0.397098  0.850767  1
  P  P5  1  0.989722  0.001043  0.750633  1
  N  N6  1  0.152795  0.691392  0.221618  1
  N  N7  1  0.924106  0.276967  0.063866  1
  N  N8  1  0.717943  0.090688  0.434674  1
  N  N9  1  0.691392  0.152795  0.721618  1
  N  N10  1  0.276967  0.924106  0.563866  1
  N  N11  1  0.090688  0.717943  0.934674  1
  O  O12  1  0.292378  0.861310  0.287508  1
  O  O13  1  0.340366  0.229361  0.195316  1
  O  O14  1  0.229361  0.340366  0.695316  1
  O  O15  1  0.765015  0.656418  0.295939  1
  O  O16  1  0.656418  0.765015  0.795939  1
  O  O17  1  0.861310  0.292378  0.787508  1
