# generated using pymatgen
data_MnOF
_symmetry_space_group_name_H-M   'P 1'
_cell_length_a   4.64677600
_cell_length_b   4.64677600
_cell_length_c   6.27492500
_cell_angle_alpha   90.00002146
_cell_angle_beta   90.00000000
_cell_angle_gamma   89.99967941
_symmetry_Int_Tables_number   1
_chemical_formula_structural   MnOF
_chemical_formula_sum   'Mn4 O4 F4'
_cell_volume   135.49148870
_cell_formula_units_Z   4
loop_
 _symmetry_equiv_pos_site_id
 _symmetry_equiv_pos_as_xyz
  1  'x, y, z'
loop_
 _atom_site_type_symbol
 _atom_site_label
 _atom_site_symmetry_multiplicity
 _atom_site_fract_x
 _atom_site_fract_y
 _atom_site_fract_z
 _atom_site_occupancy
  Mn  Mn0  1  0.971798  0.971799  0.000000  1
  Mn  Mn1  1  0.028205  0.028207  0.500000  1
  Mn  Mn2  1  0.528209  0.471790  0.249999  1
  Mn  Mn3  1  0.471792  0.528206  0.750000  1
  O  O4  1  0.175990  0.824009  0.750000  1
  O  O5  1  0.324009  0.324009  0.500000  1
  O  O6  1  0.675990  0.675990  0.000000  1
  O  O7  1  0.824009  0.175990  0.250000  1
  F  F8  1  0.224799  0.775200  0.250000  1
  F  F9  1  0.275200  0.275200  0.000000  1
  F  F10  1  0.724799  0.724799  0.500000  1
  F  F11  1  0.775200  0.224800  0.750000  1
