# generated using pymatgen
data_H3NO4
_symmetry_space_group_name_H-M   'P 1'
_cell_length_a   6.16837400
_cell_length_b   6.30297200
_cell_length_c   9.27046100
_cell_angle_alpha   90.00000000
_cell_angle_beta   90.00000000
_cell_angle_gamma   90.00000000
_symmetry_Int_Tables_number   1
_chemical_formula_structural   H3NO4
_chemical_formula_sum   'H12 N4 O16'
_cell_volume   360.42707465
_cell_formula_units_Z   4
loop_
 _symmetry_equiv_pos_site_id
 _symmetry_equiv_pos_as_xyz
  1  'x, y, z'
loop_
 _atom_site_type_symbol
 _atom_site_label
 _atom_site_symmetry_multiplicity
 _atom_site_fract_x
 _atom_site_fract_y
 _atom_site_fract_z
 _atom_site_occupancy
  H  H0  1  0.420353  0.515110  0.764383  1
  H  H1  1  0.920353  0.484890  0.235617  1
  H  H2  1  0.920353  0.984890  0.264383  1
  H  H3  1  0.420353  0.015110  0.735617  1
  H  H4  1  0.140714  0.431890  0.311709  1
  H  H5  1  0.640714  0.568110  0.688291  1
  H  H6  1  0.640714  0.068110  0.811709  1
  H  H7  1  0.140714  0.931890  0.188291  1
  H  H8  1  0.882262  0.823742  0.058488  1
  H  H9  1  0.382262  0.176258  0.941512  1
  H  H10  1  0.382262  0.676258  0.558488  1
  H  H11  1  0.882262  0.323742  0.441512  1
  N  N12  1  0.491169  0.818745  0.388528  1
  N  N13  1  0.991169  0.181255  0.611472  1
  N  N14  1  0.991169  0.681255  0.888528  1
  N  N15  1  0.491169  0.318745  0.111472  1
  O  O16  1  0.673271  0.788414  0.439697  1
  O  O17  1  0.173271  0.211586  0.560303  1
  O  O18  1  0.173271  0.711586  0.939697  1
  O  O19  1  0.673271  0.288414  0.060303  1
  O  O20  1  0.315973  0.746626  0.464660  1
  O  O21  1  0.815973  0.253374  0.535340  1
  O  O22  1  0.815973  0.753374  0.964660  1
  O  O23  1  0.315973  0.246626  0.035340  1
  O  O24  1  0.449744  0.908360  0.273917  1
  O  O25  1  0.949744  0.091640  0.726083  1
  O  O26  1  0.949744  0.591640  0.773917  1
  O  O27  1  0.449744  0.408360  0.226083  1
  O  O28  1  0.987212  0.892993  0.192924  1
  O  O29  1  0.487212  0.107007  0.807076  1
  O  O30  1  0.487212  0.607007  0.692924  1
  O  O31  1  0.987212  0.392993  0.307076  1
