# generated using pymatgen
data_Li2Ti3CoO8
_symmetry_space_group_name_H-M   'P 1'
_cell_length_a   5.97760435
_cell_length_b   10.34266507
_cell_length_c   10.30033276
_cell_angle_alpha   99.34458283
_cell_angle_beta   90.01782052
_cell_angle_gamma   106.80712582
_symmetry_Int_Tables_number   1
_chemical_formula_structural   Li2Ti3CoO8
_chemical_formula_sum   'Li8 Ti12 Co4 O32'
_cell_volume   600.76604584
_cell_formula_units_Z   4
loop_
 _symmetry_equiv_pos_site_id
 _symmetry_equiv_pos_as_xyz
  1  'x, y, z'
loop_
 _atom_site_type_symbol
 _atom_site_label
 _atom_site_symmetry_multiplicity
 _atom_site_fract_x
 _atom_site_fract_y
 _atom_site_fract_z
 _atom_site_occupancy
  Li  Li0  1  0.279870  0.559568  0.601267  1
  Li  Li1  1  0.529851  0.059540  0.351259  1
  Li  Li2  1  0.779852  0.559540  0.101224  1
  Li  Li3  1  0.029867  0.059567  0.851201  1
  Li  Li4  1  0.375207  0.750306  0.124178  1
  Li  Li5  1  0.625242  0.250376  0.874150  1
  Li  Li6  1  0.875240  0.750381  0.624174  1
  Li  Li7  1  0.125217  0.250320  0.374195  1
  Ti  Ti8  1  0.129016  0.749203  0.372582  1
  Ti  Ti9  1  0.379023  0.249261  0.122742  1
  Ti  Ti10  1  0.629149  0.749323  0.872772  1
  Ti  Ti11  1  0.879125  0.249277  0.622625  1
  Ti  Ti12  1  0.251834  0.503540  0.249870  1
  Ti  Ti13  1  0.501919  0.003637  0.999761  1
  Ti  Ti14  1  0.751930  0.503685  0.749684  1
  Ti  Ti15  1  0.001880  0.003600  0.499628  1
  Ti  Ti16  1  0.620447  0.749176  0.372595  1
  Ti  Ti17  1  0.870457  0.249247  0.122758  1
  Ti  Ti18  1  0.120401  0.749312  0.872798  1
  Ti  Ti19  1  0.370375  0.249255  0.622656  1
  Co  Co20  1  0.720776  0.441476  0.396584  1
  Co  Co21  1  0.970767  0.941438  0.146533  1
  Co  Co22  1  0.470746  0.941412  0.646505  1
  Co  Co23  1  0.220771  0.441462  0.896555  1
  O  O24  1  0.315199  0.629710  0.425765  1
  O  O25  1  0.565192  0.129694  0.175733  1
  O  O26  1  0.815184  0.629723  0.925739  1
  O  O27  1  0.065191  0.129702  0.675750  1
  O  O28  1  0.435265  0.871083  0.822052  1
  O  O29  1  0.685290  0.371021  0.572130  1
  O  O30  1  0.935316  0.871091  0.322140  1
  O  O31  1  0.185324  0.371099  0.072054  1
  O  O32  1  0.083841  0.625496  0.207422  1
  O  O33  1  0.333893  0.125480  0.957376  1
  O  O34  1  0.583900  0.625504  0.707389  1
  O  O35  1  0.833929  0.125501  0.457388  1
  O  O36  1  0.426940  0.854163  0.321671  1
  O  O37  1  0.676936  0.354159  0.071633  1
  O  O38  1  0.926932  0.854178  0.821659  1
  O  O39  1  0.176929  0.354164  0.571658  1
  O  O40  1  0.541849  0.625479  0.207398  1
  O  O41  1  0.791842  0.125459  0.957345  1
  O  O42  1  0.041758  0.625457  0.707398  1
  O  O43  1  0.291829  0.125463  0.457407  1
  O  O44  1  0.206626  0.873365  0.046143  1
  O  O45  1  0.456551  0.373429  0.796146  1
  O  O46  1  0.706546  0.873423  0.546171  1
  O  O47  1  0.956657  0.373459  0.296157  1
  O  O48  1  0.321635  0.643735  0.931267  1
  O  O49  1  0.571648  0.143731  0.681249  1
  O  O50  1  0.821688  0.643860  0.431298  1
  O  O51  1  0.071724  0.143824  0.181198  1
  O  O52  1  0.666291  0.873361  0.046206  1
  O  O53  1  0.916420  0.373457  0.796269  1
  O  O54  1  0.166398  0.873410  0.546237  1
  O  O55  1  0.416312  0.373430  0.296253  1
