# generated using pymatgen
data_Li2Ti3NiO8
_symmetry_space_group_name_H-M   'P 1'
_cell_length_a   5.99089724
_cell_length_b   8.45892145
_cell_length_c   11.92996645
_cell_angle_alpha   90.00331389
_cell_angle_beta   90.00138704
_cell_angle_gamma   89.69424010
_symmetry_Int_Tables_number   1
_chemical_formula_structural   Li2Ti3NiO8
_chemical_formula_sum   'Li8 Ti12 Ni4 O32'
_cell_volume   604.56068261
_cell_formula_units_Z   4
loop_
 _symmetry_equiv_pos_site_id
 _symmetry_equiv_pos_as_xyz
  1  'x, y, z'
loop_
 _atom_site_type_symbol
 _atom_site_label
 _atom_site_symmetry_multiplicity
 _atom_site_fract_x
 _atom_site_fract_y
 _atom_site_fract_z
 _atom_site_occupancy
  Li  Li0  1  0.237416  0.118865  0.499916  1
  Li  Li1  1  0.737382  0.618789  0.750068  1
  Li  Li2  1  0.237367  0.118905  0.000027  1
  Li  Li3  1  0.737351  0.618829  0.249952  1
  Li  Li4  1  0.001735  0.500805  0.499906  1
  Li  Li5  1  0.501651  0.000957  0.750070  1
  Li  Li6  1  0.001641  0.500900  0.000020  1
  Li  Li7  1  0.501604  0.001045  0.249975  1
  Ti  Ti8  1  0.505801  0.498485  0.500016  1
  Ti  Ti9  1  0.005433  0.998594  0.749957  1
  Ti  Ti10  1  0.505440  0.498420  0.999880  1
  Ti  Ti11  1  0.005114  0.998550  0.250071  1
  Ti  Ti12  1  0.751495  0.252858  0.622734  1
  Ti  Ti13  1  0.250849  0.752837  0.872897  1
  Ti  Ti14  1  0.751518  0.252980  0.122702  1
  Ti  Ti15  1  0.251059  0.752939  0.372973  1
  Ti  Ti16  1  0.751226  0.252831  0.377181  1
  Ti  Ti17  1  0.251199  0.752893  0.627161  1
  Ti  Ti18  1  0.751345  0.252872  0.877084  1
  Ti  Ti19  1  0.251116  0.753030  0.127174  1
  Ni  Ni20  1  0.764445  0.882262  0.500126  1
  Ni  Ni21  1  0.264608  0.381979  0.749812  1
  Ni  Ni22  1  0.764368  0.882599  0.999910  1
  Ni  Ni23  1  0.264709  0.382234  0.250032  1
  O  O24  1  0.519704  0.259036  0.500128  1
  O  O25  1  0.019223  0.760082  0.749863  1
  O  O26  1  0.519674  0.259041  0.999968  1
  O  O27  1  0.019278  0.760023  0.249982  1
  O  O28  1  0.480417  0.741101  0.499853  1
  O  O29  1  0.980887  0.239967  0.750131  1
  O  O30  1  0.480188  0.741026  0.999853  1
  O  O31  1  0.980852  0.239827  0.250153  1
  O  O32  1  0.730901  0.479348  0.614403  1
  O  O33  1  0.230121  0.979303  0.864501  1
  O  O34  1  0.730804  0.479336  0.114303  1
  O  O35  1  0.230093  0.979343  0.364528  1
  O  O36  1  0.730854  0.479396  0.385702  1
  O  O37  1  0.230158  0.979367  0.635449  1
  O  O38  1  0.730783  0.479373  0.885694  1
  O  O39  1  0.230121  0.979319  0.135491  1
  O  O40  1  0.959982  0.251839  0.500089  1
  O  O41  1  0.459001  0.751198  0.750019  1
  O  O42  1  0.960054  0.251870  0.000054  1
  O  O43  1  0.459001  0.751201  0.249952  1
  O  O44  1  0.034064  0.747914  0.499954  1
  O  O45  1  0.534651  0.248905  0.750233  1
  O  O46  1  0.033311  0.748435  0.999915  1
  O  O47  1  0.534603  0.248895  0.250208  1
  O  O48  1  0.267964  0.517234  0.615966  1
  O  O49  1  0.766172  0.017739  0.865764  1
  O  O50  1  0.267930  0.517183  0.115968  1
  O  O51  1  0.765838  0.017634  0.365806  1
  O  O52  1  0.267766  0.517145  0.384036  1
  O  O53  1  0.766250  0.017840  0.634151  1
  O  O54  1  0.267287  0.516905  0.884032  1
  O  O55  1  0.766177  0.017718  0.134203  1
