# generated using pymatgen
data_Li2TiCoO4
_symmetry_space_group_name_H-M   'P 1'
_cell_length_a   5.24924995
_cell_length_b   5.24931644
_cell_length_c   5.75465200
_cell_angle_alpha   90.00002829
_cell_angle_beta   89.99996939
_cell_angle_gamma   113.52187978
_symmetry_Int_Tables_number   1
_chemical_formula_structural   Li2TiCoO4
_chemical_formula_sum   'Li4 Ti2 Co2 O8'
_cell_volume   145.39340548
_cell_formula_units_Z   2
loop_
 _symmetry_equiv_pos_site_id
 _symmetry_equiv_pos_as_xyz
  1  'x, y, z'
loop_
 _atom_site_type_symbol
 _atom_site_label
 _atom_site_symmetry_multiplicity
 _atom_site_fract_x
 _atom_site_fract_y
 _atom_site_fract_z
 _atom_site_occupancy
  Li  Li0  1  0.000000  0.500001  0.749997  1
  Li  Li1  1  0.500001  0.000000  0.250002  1
  Li  Li2  1  0.499999  0.499999  0.000000  1
  Li  Li3  1  0.000000  0.000000  0.500000  1
  Ti  Ti4  1  0.000001  0.499996  0.249999  1
  Ti  Ti5  1  0.499996  0.000001  0.750002  1
  Co  Co6  1  0.500000  0.500000  0.500005  1
  Co  Co7  1  0.999996  0.999996  0.000005  1
  O  O8  1  0.223018  0.277008  0.250008  1
  O  O9  1  0.723001  0.776985  0.749984  1
  O  O10  1  0.776985  0.723001  0.250010  1
  O  O11  1  0.277008  0.223018  0.749986  1
  O  O12  1  0.250989  0.749007  0.000000  1
  O  O13  1  0.750982  0.249020  0.500000  1
  O  O14  1  0.749006  0.250988  0.000000  1
  O  O15  1  0.249019  0.750981  0.500001  1
