# generated using pymatgen
data_Li4V2SiGeO10
_symmetry_space_group_name_H-M   'P 1'
_cell_length_a   4.57354401
_cell_length_b   9.21234414
_cell_length_c   9.21214897
_cell_angle_alpha   89.99500396
_cell_angle_beta   90.00233872
_cell_angle_gamma   90.00602212
_symmetry_Int_Tables_number   1
_chemical_formula_structural   Li4V2SiGeO10
_chemical_formula_sum   'Li8 V4 Si2 Ge2 O20'
_cell_volume   388.13603391
_cell_formula_units_Z   2
loop_
 _symmetry_equiv_pos_site_id
 _symmetry_equiv_pos_as_xyz
  1  'x, y, z'
loop_
 _atom_site_type_symbol
 _atom_site_label
 _atom_site_symmetry_multiplicity
 _atom_site_fract_x
 _atom_site_fract_y
 _atom_site_fract_z
 _atom_site_occupancy
  Li  Li0  1  0.000003  0.499999  0.494882  1
  Li  Li1  1  0.000021  0.000014  0.994881  1
  Li  Li2  1  0.000010  0.255117  0.249981  1
  Li  Li3  1  0.000013  0.755113  0.750006  1
  Li  Li4  1  0.000013  0.744884  0.249994  1
  Li  Li5  1  0.000008  0.244887  0.750015  1
  Li  Li6  1  0.000022  0.499987  0.005115  1
  Li  Li7  1  0.000003  0.000001  0.505119  1
  V  V8  1  0.589498  0.749997  0.500000  1
  V  V9  1  0.410479  0.250003  0.500001  1
  V  V10  1  0.589431  0.249997  0.000000  1
  V  V11  1  0.410410  0.750001  0.000002  1
  Si  Si12  1  0.499991  0.499983  0.249997  1
  Si  Si13  1  0.499994  0.000010  0.749984  1
  Ge  Ge14  1  0.499988  0.499996  0.750021  1
  Ge  Ge15  1  0.499982  0.000010  0.249995  1
  O  O16  1  0.222120  0.249998  0.999997  1
  O  O17  1  0.222164  0.749966  0.499999  1
  O  O18  1  0.777849  0.750001  0.000001  1
  O  O19  1  0.777804  0.250027  0.500014  1
  O  O20  1  0.285875  0.397880  0.352058  1
  O  O21  1  0.285742  0.897939  0.852049  1
  O  O22  1  0.714266  0.397934  0.147964  1
  O  O23  1  0.714198  0.897940  0.647948  1
  O  O24  1  0.714194  0.602074  0.352040  1
  O  O25  1  0.714273  0.102065  0.852037  1
  O  O26  1  0.285743  0.602061  0.147949  1
  O  O27  1  0.285874  0.102103  0.647926  1
  O  O28  1  0.735890  0.392501  0.857507  1
  O  O29  1  0.735808  0.892510  0.357516  1
  O  O30  1  0.264241  0.392455  0.642463  1
  O  O31  1  0.264081  0.892503  0.142477  1
  O  O32  1  0.264087  0.607499  0.857523  1
  O  O33  1  0.264230  0.107538  0.357542  1
  O  O34  1  0.735793  0.607506  0.642499  1
  O  O35  1  0.735895  0.107499  0.142497  1
