# generated using pymatgen
data_Cu2O3
_symmetry_space_group_name_H-M   'P 1'
_cell_length_a   7.69282701
_cell_length_b   6.22719202
_cell_length_c   5.18778066
_cell_angle_alpha   84.21596216
_cell_angle_beta   53.64495042
_cell_angle_gamma   42.13908743
_symmetry_Int_Tables_number   1
_chemical_formula_structural   Cu2O3
_chemical_formula_sum   'Cu4 O6'
_cell_volume   104.61295780
_cell_formula_units_Z   2
loop_
 _symmetry_equiv_pos_site_id
 _symmetry_equiv_pos_as_xyz
  1  'x, y, z'
loop_
 _atom_site_type_symbol
 _atom_site_label
 _atom_site_symmetry_multiplicity
 _atom_site_fract_x
 _atom_site_fract_y
 _atom_site_fract_z
 _atom_site_occupancy
  Cu  Cu0  1  0.417463  0.176698  0.812809  1
  Cu  Cu1  1  0.073302  0.832537  0.656971  1
  Cu  Cu2  1  0.437191  0.656971  0.832537  1
  Cu  Cu3  1  0.593029  0.812809  0.176698  1
  O  O4  1  0.822597  0.677403  0.677403  1
  O  O5  1  0.943862  0.718917  0.023961  1
  O  O6  1  0.531083  0.306138  0.936740  1
  O  O7  1  0.572597  0.427403  0.427403  1
  O  O8  1  0.226039  0.936740  0.306138  1
  O  O9  1  0.313260  0.023961  0.718917  1
