# generated using pymatgen
data_Li4Fe(OF)2
_symmetry_space_group_name_H-M   'P 1'
_cell_length_a   3.66066114
_cell_length_b   10.55239390
_cell_length_c   10.61987813
_cell_angle_alpha   70.90700584
_cell_angle_beta   90.01272962
_cell_angle_gamma   99.96475141
_symmetry_Int_Tables_number   1
_chemical_formula_structural   Li4Fe(OF)2
_chemical_formula_sum   'Li16 Fe4 O8 F8'
_cell_volume   381.11581526
_cell_formula_units_Z   4
loop_
 _symmetry_equiv_pos_site_id
 _symmetry_equiv_pos_as_xyz
  1  'x, y, z'
loop_
 _atom_site_type_symbol
 _atom_site_label
 _atom_site_symmetry_multiplicity
 _atom_site_fract_x
 _atom_site_fract_y
 _atom_site_fract_z
 _atom_site_occupancy
  Li  Li0  1  0.564146  0.122962  0.701665  1
  Li  Li1  1  0.064149  0.122975  0.201674  1
  Li  Li2  1  0.814231  0.622994  0.951612  1
  Li  Li3  1  0.314228  0.623008  0.451608  1
  Li  Li4  1  0.690496  0.374333  0.546921  1
  Li  Li5  1  0.190486  0.374309  0.046926  1
  Li  Li6  1  0.940434  0.874352  0.796884  1
  Li  Li7  1  0.440425  0.874312  0.296892  1
  Li  Li8  1  0.132743  0.259608  0.794338  1
  Li  Li9  1  0.632731  0.259575  0.294363  1
  Li  Li10  1  0.382629  0.759628  0.044350  1
  Li  Li11  1  0.882655  0.759589  0.544347  1
  Li  Li12  1  0.122581  0.239163  0.453601  1
  Li  Li13  1  0.622578  0.239177  0.953603  1
  Li  Li14  1  0.372576  0.739146  0.703645  1
  Li  Li15  1  0.872562  0.739154  0.203651  1
  Fe  Fe16  1  0.502814  0.999658  0.499067  1
  Fe  Fe17  1  0.252812  0.499617  0.249109  1
  Fe  Fe18  1  0.002876  0.999708  0.999041  1
  Fe  Fe19  1  0.752805  0.499624  0.749072  1
  O  O20  1  0.661532  0.316814  0.745275  1
  O  O21  1  0.161512  0.316755  0.245335  1
  O  O22  1  0.911285  0.816861  0.995206  1
  O  O23  1  0.411522  0.816816  0.495283  1
  O  O24  1  0.594219  0.182742  0.503319  1
  O  O25  1  0.094190  0.182695  0.003327  1
  O  O26  1  0.844286  0.682699  0.753197  1
  O  O27  1  0.344202  0.682742  0.253308  1
  F  F28  1  0.041578  0.079150  0.783538  1
  F  F29  1  0.541562  0.079134  0.283590  1
  F  F30  1  0.291958  0.579120  0.033631  1
  F  F31  1  0.791844  0.579133  0.533548  1
  F  F32  1  0.211681  0.419798  0.464838  1
  F  F33  1  0.711533  0.419747  0.964948  1
  F  F34  1  0.461462  0.919727  0.714896  1
  F  F35  1  0.961484  0.919724  0.214955  1
