# generated using pymatgen
data_Li6Fe(OF)3
_symmetry_space_group_name_H-M   'P 1'
_cell_length_a   5.39543748
_cell_length_b   6.92313033
_cell_length_c   16.54938443
_cell_angle_alpha   90.00199267
_cell_angle_beta   89.99511985
_cell_angle_gamma   105.98741537
_symmetry_Int_Tables_number   1
_chemical_formula_structural   Li6Fe(OF)3
_chemical_formula_sum   'Li24 Fe4 O12 F12'
_cell_volume   594.26478074
_cell_formula_units_Z   4
loop_
 _symmetry_equiv_pos_site_id
 _symmetry_equiv_pos_as_xyz
  1  'x, y, z'
loop_
 _atom_site_type_symbol
 _atom_site_label
 _atom_site_symmetry_multiplicity
 _atom_site_fract_x
 _atom_site_fract_y
 _atom_site_fract_z
 _atom_site_occupancy
  Li  Li0  1  0.995467  0.511323  0.424507  1
  Li  Li1  1  0.995573  0.011340  0.674495  1
  Li  Li2  1  0.995587  0.511177  0.924533  1
  Li  Li3  1  0.995572  0.011203  0.174488  1
  Li  Li4  1  0.995585  0.511337  0.575465  1
  Li  Li5  1  0.995522  0.011282  0.825537  1
  Li  Li6  1  0.995499  0.511177  0.075486  1
  Li  Li7  1  0.995643  0.011179  0.325495  1
  Li  Li8  1  0.360214  0.328811  0.333293  1
  Li  Li9  1  0.360374  0.828938  0.583315  1
  Li  Li10  1  0.360240  0.328831  0.833359  1
  Li  Li11  1  0.360293  0.828813  0.083332  1
  Li  Li12  1  0.662131  0.177807  0.408792  1
  Li  Li13  1  0.662257  0.678001  0.658846  1
  Li  Li14  1  0.662110  0.177774  0.908824  1
  Li  Li15  1  0.662181  0.677850  0.158836  1
  Li  Li16  1  0.360248  0.328862  0.666698  1
  Li  Li17  1  0.360308  0.828828  0.916698  1
  Li  Li18  1  0.360223  0.328778  0.166668  1
  Li  Li19  1  0.360361  0.828922  0.416642  1
  Li  Li20  1  0.662133  0.177887  0.591180  1
  Li  Li21  1  0.662234  0.677925  0.841155  1
  Li  Li22  1  0.662100  0.177814  0.091192  1
  Li  Li23  1  0.662181  0.677833  0.341151  1
  Fe  Fe24  1  0.937120  0.937239  0.500012  1
  Fe  Fe25  1  0.937003  0.437051  0.749962  1
  Fe  Fe26  1  0.936991  0.936834  0.999967  1
  Fe  Fe27  1  0.936887  0.437098  0.250055  1
  O  O28  1  0.103911  0.731160  0.500005  1
  O  O29  1  0.103017  0.230887  0.750089  1
  O  O30  1  0.103607  0.730677  0.999997  1
  O  O31  1  0.103046  0.230925  0.250002  1
  O  O32  1  0.730590  0.417180  0.343226  1
  O  O33  1  0.730759  0.917113  0.593285  1
  O  O34  1  0.730882  0.417222  0.843177  1
  O  O35  1  0.731006  0.917091  0.093316  1
  O  O36  1  0.730740  0.417322  0.656779  1
  O  O37  1  0.730883  0.916896  0.906705  1
  O  O38  1  0.730737  0.417261  0.156822  1
  O  O39  1  0.731036  0.916799  0.406686  1
  F  F40  1  0.283106  0.589216  0.347053  1
  F  F41  1  0.283473  0.089102  0.596736  1
  F  F42  1  0.283542  0.589004  0.847290  1
  F  F43  1  0.283540  0.089024  0.096681  1
  F  F44  1  0.283436  0.588967  0.652812  1
  F  F45  1  0.283505  0.089096  0.903346  1
  F  F46  1  0.283463  0.588970  0.152807  1
  F  F47  1  0.283532  0.089116  0.403218  1
  F  F48  1  0.893916  0.283243  0.499999  1
  F  F49  1  0.896186  0.784945  0.749996  1
  F  F50  1  0.894164  0.283081  0.999995  1
  F  F51  1  0.895894  0.783789  0.249996  1
