# generated using pymatgen
data_Li2MnSiO4
_symmetry_space_group_name_H-M   'P 1'
_cell_length_a   5.33925202
_cell_length_b   5.33925287
_cell_length_c   6.38345879
_cell_angle_alpha   90.00000000
_cell_angle_beta   90.00000000
_cell_angle_gamma   106.57911705
_symmetry_Int_Tables_number   1
_chemical_formula_structural   Li2MnSiO4
_chemical_formula_sum   'Li4 Mn2 Si2 O8'
_cell_volume   174.41179241
_cell_formula_units_Z   2
loop_
 _symmetry_equiv_pos_site_id
 _symmetry_equiv_pos_as_xyz
  1  'x, y, z'
loop_
 _atom_site_type_symbol
 _atom_site_label
 _atom_site_symmetry_multiplicity
 _atom_site_fract_x
 _atom_site_fract_y
 _atom_site_fract_z
 _atom_site_occupancy
  Li  Li0  1  0.500009  0.999991  0.250000  1
  Li  Li1  1  0.000009  0.499991  0.750000  1
  Li  Li2  1  0.500009  0.999991  0.750000  1
  Li  Li3  1  0.000009  0.499991  0.250000  1
  Mn  Mn4  1  0.499985  0.500015  0.500000  1
  Mn  Mn5  1  0.999985  0.000015  0.000000  1
  Si  Si6  1  0.000002  0.999998  0.500000  1
  Si  Si7  1  0.500002  0.499998  0.000000  1
  O  O8  1  0.113791  0.886209  0.289921  1
  O  O9  1  0.613791  0.386209  0.789922  1
  O  O10  1  0.113790  0.886209  0.710079  1
  O  O11  1  0.613791  0.386209  0.210078  1
  O  O12  1  0.676156  0.903742  0.500000  1
  O  O13  1  0.176156  0.403742  0.000000  1
  O  O14  1  0.096257  0.323844  0.500000  1
  O  O15  1  0.596258  0.823844  0.000000  1
