# generated using pymatgen
data_LiVSiO4
_symmetry_space_group_name_H-M   'P 1'
_cell_length_a   4.85527102
_cell_length_b   5.16752416
_cell_length_c   16.48533826
_cell_angle_alpha   86.26566313
_cell_angle_beta   89.99305589
_cell_angle_gamma   61.97016680
_symmetry_Int_Tables_number   1
_chemical_formula_structural   LiVSiO4
_chemical_formula_sum   'Li4 V4 Si4 O16'
_cell_volume   364.10371829
_cell_formula_units_Z   4
loop_
 _symmetry_equiv_pos_site_id
 _symmetry_equiv_pos_as_xyz
  1  'x, y, z'
loop_
 _atom_site_type_symbol
 _atom_site_label
 _atom_site_symmetry_multiplicity
 _atom_site_fract_x
 _atom_site_fract_y
 _atom_site_fract_z
 _atom_site_occupancy
  Li  Li0  1  0.874986  0.249995  0.624957  1
  Li  Li1  1  0.625023  0.749973  0.874996  1
  Li  Li2  1  0.375090  0.249944  0.125096  1
  Li  Li3  1  0.125069  0.749978  0.375002  1
  V  V4  1  0.250022  0.500061  0.750010  1
  V  V5  1  0.000117  0.999909  0.999966  1
  V  V6  1  0.749992  0.499999  0.249941  1
  V  V7  1  0.499957  0.999985  0.500067  1
  Si  Si8  1  0.562437  0.874994  0.687481  1
  Si  Si9  1  0.312465  0.375043  0.937491  1
  Si  Si10  1  0.062474  0.875052  0.187626  1
  Si  Si11  1  0.812575  0.374931  0.437391  1
  O  O12  1  0.651388  0.282172  0.514118  1
  O  O13  1  0.401517  0.782103  0.764249  1
  O  O14  1  0.151472  0.282238  0.014257  1
  O  O15  1  0.901245  0.782418  0.264359  1
  O  O16  1  0.338019  0.955940  0.604852  1
  O  O17  1  0.088064  0.456095  0.854845  1
  O  O18  1  0.838328  0.956323  0.104926  1
  O  O19  1  0.588167  0.455954  0.354775  1
  O  O20  1  0.908249  0.598523  0.672218  1
  O  O21  1  0.658198  0.098299  0.922328  1
  O  O22  1  0.408093  0.598176  0.172454  1
  O  O23  1  0.158456  0.098359  0.422301  1
  O  O24  1  0.601898  0.163524  0.708513  1
  O  O25  1  0.352101  0.663479  0.958522  1
  O  O26  1  0.102515  0.163127  0.208816  1
  O  O27  1  0.852082  0.663406  0.458440  1
