# generated using pymatgen
data_LiVCoO4
_symmetry_space_group_name_H-M   'P 1'
_cell_length_a   5.97369201
_cell_length_b   8.23799100
_cell_length_c   5.97623101
_cell_angle_alpha   89.99930274
_cell_angle_beta   90.00787283
_cell_angle_gamma   90.00120242
_symmetry_Int_Tables_number   1
_chemical_formula_structural   LiVCoO4
_chemical_formula_sum   'Li4 V4 Co4 O16'
_cell_volume   294.09762265
_cell_formula_units_Z   4
loop_
 _symmetry_equiv_pos_site_id
 _symmetry_equiv_pos_as_xyz
  1  'x, y, z'
loop_
 _atom_site_type_symbol
 _atom_site_label
 _atom_site_symmetry_multiplicity
 _atom_site_fract_x
 _atom_site_fract_y
 _atom_site_fract_z
 _atom_site_occupancy
  Li  Li0  1  0.244016  0.999976  0.000035  1
  Li  Li1  1  0.755967  0.500029  0.000009  1
  Li  Li2  1  0.000020  0.250009  0.244075  1
  Li  Li3  1  0.000008  0.749990  0.755921  1
  V  V4  1  0.780362  0.500036  0.499914  1
  V  V5  1  0.499929  0.749952  0.780424  1
  V  V6  1  0.499977  0.250026  0.219621  1
  V  V7  1  0.219720  0.999966  0.500032  1
  Co  Co8  1  0.258494  0.625081  0.258496  1
  Co  Co9  1  0.258516  0.374950  0.741534  1
  Co  Co10  1  0.741544  0.874928  0.258476  1
  Co  Co11  1  0.741517  0.125090  0.741484  1
  O  O12  1  0.272097  0.258228  0.029504  1
  O  O13  1  0.727817  0.241797  0.029452  1
  O  O14  1  0.029415  0.991758  0.272235  1
  O  O15  1  0.970689  0.508268  0.272180  1
  O  O16  1  0.029381  0.008207  0.727813  1
  O  O17  1  0.970610  0.491810  0.727760  1
  O  O18  1  0.272182  0.741734  0.970626  1
  O  O19  1  0.727842  0.758268  0.970478  1
  O  O20  1  0.485127  0.022726  0.269134  1
  O  O21  1  0.514829  0.477301  0.269111  1
  O  O22  1  0.269220  0.227242  0.485081  1
  O  O23  1  0.730771  0.272758  0.485001  1
  O  O24  1  0.269204  0.772699  0.514906  1
  O  O25  1  0.730746  0.727217  0.514887  1
  O  O26  1  0.514919  0.522711  0.730937  1
  O  O27  1  0.485080  0.977244  0.730877  1
