# generated using pymatgen
data_Mn4OF6
_symmetry_space_group_name_H-M   'P 1'
_cell_length_a   5.60421300
_cell_length_b   7.44029874
_cell_length_c   7.44787807
_cell_angle_alpha   59.96690555
_cell_angle_beta   89.99989675
_cell_angle_gamma   89.99787606
_symmetry_Int_Tables_number   1
_chemical_formula_structural   Mn4OF6
_chemical_formula_sum   'Mn8 O2 F12'
_cell_volume   268.85818979
_cell_formula_units_Z   2
loop_
 _symmetry_equiv_pos_site_id
 _symmetry_equiv_pos_as_xyz
  1  'x, y, z'
loop_
 _atom_site_type_symbol
 _atom_site_label
 _atom_site_symmetry_multiplicity
 _atom_site_fract_x
 _atom_site_fract_y
 _atom_site_fract_z
 _atom_site_occupancy
  Mn  Mn0  1  0.981596  0.333202  0.333367  1
  Mn  Mn1  1  0.501689  0.631612  0.184165  1
  Mn  Mn2  1  0.001805  0.815206  0.815333  1
  Mn  Mn3  1  0.001819  0.815183  0.369421  1
  Mn  Mn4  1  0.481667  0.666752  0.666602  1
  Mn  Mn5  1  0.501805  0.184773  0.630553  1
  Mn  Mn6  1  0.501832  0.184773  0.184632  1
  Mn  Mn7  1  0.001589  0.368401  0.815784  1
  O  O8  1  0.629245  0.333439  0.333272  1
  O  O9  1  0.129273  0.666594  0.666657  1
  F  F10  1  0.893067  0.129658  0.739761  1
  F  F11  1  0.893070  0.129656  0.130574  1
  F  F12  1  0.391800  0.260841  0.869574  1
  F  F13  1  0.891795  0.739147  0.130419  1
  F  F14  1  0.393077  0.870328  0.869427  1
  F  F15  1  0.393209  0.870396  0.260209  1
  F  F16  1  0.227402  0.083199  0.458396  1
  F  F17  1  0.225966  0.458382  0.458387  1
  F  F18  1  0.225971  0.458382  0.083220  1
  F  F19  1  0.725972  0.541591  0.916811  1
  F  F20  1  0.725978  0.541588  0.541590  1
  F  F21  1  0.727290  0.916895  0.541548  1
