# generated using pymatgen
data_KLiMnPCO7
_symmetry_space_group_name_H-M   'P 1'
_cell_length_a   5.39605121
_cell_length_b   6.31738507
_cell_length_c   9.99270718
_cell_angle_alpha   90.01645094
_cell_angle_beta   91.62803855
_cell_angle_gamma   89.99484626
_symmetry_Int_Tables_number   1
_chemical_formula_structural   KLiMnPCO7
_chemical_formula_sum   'K2 Li2 Mn2 P2 C2 O14'
_cell_volume   340.50320798
_cell_formula_units_Z   2
loop_
 _symmetry_equiv_pos_site_id
 _symmetry_equiv_pos_as_xyz
  1  'x, y, z'
loop_
 _atom_site_type_symbol
 _atom_site_label
 _atom_site_symmetry_multiplicity
 _atom_site_fract_x
 _atom_site_fract_y
 _atom_site_fract_z
 _atom_site_occupancy
  K  K0  1  0.234752  0.424288  0.757125  1
  K  K1  1  0.765265  0.924329  0.242881  1
  Li  Li2  1  0.230035  0.913996  0.883761  1
  Li  Li3  1  0.770071  0.413965  0.116257  1
  Mn  Mn4  1  0.773746  0.783020  0.637818  1
  Mn  Mn5  1  0.225635  0.282796  0.362230  1
  P  P6  1  0.706231  0.277602  0.558443  1
  P  P7  1  0.293704  0.777505  0.441565  1
  C  C8  1  0.733750  0.733915  0.902810  1
  C  C9  1  0.266372  0.233857  0.097202  1
  O  O10  1  0.229091  0.177191  0.976115  1
  O  O11  1  0.927946  0.768677  0.825935  1
  O  O12  1  0.519208  0.758443  0.845108  1
  O  O13  1  0.767093  0.088616  0.654530  1
  O  O14  1  0.763083  0.472375  0.650950  1
  O  O15  1  0.148052  0.773472  0.570016  1
  O  O16  1  0.419775  0.278542  0.526551  1
  O  O17  1  0.580240  0.778649  0.473398  1
  O  O18  1  0.851964  0.273373  0.430003  1
  O  O19  1  0.236959  0.972251  0.348967  1
  O  O20  1  0.233127  0.588456  0.345502  1
  O  O21  1  0.480868  0.258376  0.154894  1
  O  O22  1  0.072040  0.268409  0.174072  1
  O  O23  1  0.770991  0.677081  0.023847  1
