# generated using pymatgen
data_VOF2
_symmetry_space_group_name_H-M   'P 1'
_cell_length_a   3.73186612
_cell_length_b   9.67251416
_cell_length_c   6.17027439
_cell_angle_alpha   89.27706622
_cell_angle_beta   90.01123524
_cell_angle_gamma   89.97178432
_symmetry_Int_Tables_number   1
_chemical_formula_structural   VOF2
_chemical_formula_sum   'V4 O4 F8'
_cell_volume   222.70772076
_cell_formula_units_Z   4
loop_
 _symmetry_equiv_pos_site_id
 _symmetry_equiv_pos_as_xyz
  1  'x, y, z'
loop_
 _atom_site_type_symbol
 _atom_site_label
 _atom_site_symmetry_multiplicity
 _atom_site_fract_x
 _atom_site_fract_y
 _atom_site_fract_z
 _atom_site_occupancy
  V  V0  1  0.534375  0.496733  0.246761  1
  V  V1  1  0.034366  0.996733  0.996766  1
  V  V2  1  0.534439  0.496733  0.746764  1
  V  V3  1  0.034434  0.996733  0.496762  1
  O  O4  1  0.984986  0.496638  0.746876  1
  O  O5  1  0.985051  0.496638  0.246876  1
  O  O6  1  0.485054  0.996638  0.996876  1
  O  O7  1  0.484991  0.996638  0.496876  1
  F  F8  1  0.980538  0.125726  0.244206  1
  F  F9  1  0.980538  0.125724  0.744145  1
  F  F10  1  0.480538  0.625721  0.494205  1
  F  F11  1  0.480538  0.625722  0.994146  1
  F  F12  1  0.480798  0.367746  0.499339  1
  F  F13  1  0.480799  0.367745  0.999280  1
  F  F14  1  0.980799  0.867743  0.749279  1
  F  F15  1  0.980799  0.867741  0.249340  1
