# generated using pymatgen
data_LiV5O7F
_symmetry_space_group_name_H-M   'P 1'
_cell_length_a   6.01960460
_cell_length_b   6.01960460
_cell_length_c   6.01960416
_cell_angle_alpha   61.39300885
_cell_angle_beta   61.39300885
_cell_angle_gamma   61.39301534
_symmetry_Int_Tables_number   1
_chemical_formula_structural   LiV5O7F
_chemical_formula_sum   'Li1 V5 O7 F1'
_cell_volume   159.06363030
_cell_formula_units_Z   1
loop_
 _symmetry_equiv_pos_site_id
 _symmetry_equiv_pos_as_xyz
  1  'x, y, z'
loop_
 _atom_site_type_symbol
 _atom_site_label
 _atom_site_symmetry_multiplicity
 _atom_site_fract_x
 _atom_site_fract_y
 _atom_site_fract_z
 _atom_site_occupancy
  Li  Li0  1  0.241545  0.241545  0.241545  1
  V  V1  1  0.009241  0.009241  0.009241  1
  V  V2  1  0.620061  0.620061  0.620061  1
  V  V3  1  0.632100  0.128840  0.632100  1
  V  V4  1  0.128840  0.632100  0.632100  1
  V  V5  1  0.632100  0.632100  0.128840  1
  O  O6  1  0.843308  0.374863  0.374863  1
  O  O7  1  0.374863  0.374863  0.843308  1
  O  O8  1  0.374863  0.843308  0.374863  1
  O  O9  1  0.873095  0.873095  0.873095  1
  O  O10  1  0.868346  0.404144  0.868346  1
  O  O11  1  0.404144  0.868346  0.868346  1
  O  O12  1  0.868346  0.868346  0.404144  1
  F  F13  1  0.379138  0.379138  0.379138  1
