# generated using pymatgen
data_TiVO4
_symmetry_space_group_name_H-M   'P 1'
_cell_length_a   5.47927914
_cell_length_b   5.47927386
_cell_length_c   8.83086094
_cell_angle_alpha   86.27780615
_cell_angle_beta   86.27778583
_cell_angle_gamma   72.63693276
_symmetry_Int_Tables_number   1
_chemical_formula_structural   TiVO4
_chemical_formula_sum   'Ti4 V4 O16'
_cell_volume   252.22064505
_cell_formula_units_Z   4
loop_
 _symmetry_equiv_pos_site_id
 _symmetry_equiv_pos_as_xyz
  1  'x, y, z'
loop_
 _atom_site_type_symbol
 _atom_site_label
 _atom_site_symmetry_multiplicity
 _atom_site_fract_x
 _atom_site_fract_y
 _atom_site_fract_z
 _atom_site_occupancy
  Ti  Ti0  1  0.873152  0.873152  0.626916  1
  Ti  Ti1  1  0.373183  0.373183  0.127005  1
  Ti  Ti2  1  0.748273  0.748271  0.252281  1
  Ti  Ti3  1  0.248406  0.248407  0.751997  1
  V  V4  1  0.625514  0.625515  0.874813  1
  V  V5  1  0.000208  0.000208  0.999309  1
  V  V6  1  0.125333  0.125332  0.374646  1
  V  V7  1  0.500112  0.500111  0.499582  1
  O  O8  1  0.272683  0.272684  0.524126  1
  O  O9  1  0.772755  0.772754  0.024159  1
  O  O10  1  0.202443  0.796245  0.500624  1
  O  O11  1  0.702366  0.296244  0.000693  1
  O  O12  1  0.796245  0.202442  0.500625  1
  O  O13  1  0.296244  0.702366  0.000691  1
  O  O14  1  0.975558  0.975560  0.227422  1
  O  O15  1  0.475527  0.475526  0.727488  1
  O  O16  1  0.028658  0.028656  0.775726  1
  O  O17  1  0.528725  0.528727  0.275668  1
  O  O18  1  0.947029  0.556036  0.748484  1
  O  O19  1  0.447067  0.056005  0.248378  1
  O  O20  1  0.056003  0.447068  0.248378  1
  O  O21  1  0.556036  0.947028  0.748484  1
  O  O22  1  0.724271  0.724271  0.471219  1
  O  O23  1  0.224207  0.224206  0.971289  1
