# generated using pymatgen
data_Li3V(FeO3)2
_symmetry_space_group_name_H-M   'P 1'
_cell_length_a   5.15880674
_cell_length_b   5.21264374
_cell_length_c   10.24149500
_cell_angle_alpha   90.00000000
_cell_angle_beta   90.00000000
_cell_angle_gamma   60.34108114
_symmetry_Int_Tables_number   1
_chemical_formula_structural   Li3V(FeO3)2
_chemical_formula_sum   'Li6 V2 Fe4 O12'
_cell_volume   239.32259711
_cell_formula_units_Z   2
loop_
 _symmetry_equiv_pos_site_id
 _symmetry_equiv_pos_as_xyz
  1  'x, y, z'
loop_
 _atom_site_type_symbol
 _atom_site_label
 _atom_site_symmetry_multiplicity
 _atom_site_fract_x
 _atom_site_fract_y
 _atom_site_fract_z
 _atom_site_occupancy
  Li  Li0  1  0.662603  0.000000  0.776851  1
  Li  Li1  1  0.837397  0.000000  0.276851  1
  Li  Li2  1  0.160929  0.338222  0.277857  1
  Li  Li3  1  0.339071  0.661778  0.777857  1
  Li  Li4  1  0.000849  0.338222  0.777857  1
  Li  Li5  1  0.499151  0.661778  0.277857  1
  V  V6  1  0.000854  0.000000  0.003041  1
  V  V7  1  0.499146  0.000000  0.503041  1
  Fe  Fe8  1  0.334477  0.334109  0.006585  1
  Fe  Fe9  1  0.831414  0.334109  0.506585  1
  Fe  Fe10  1  0.165523  0.665891  0.506585  1
  Fe  Fe11  1  0.668586  0.665891  0.006585  1
  O  O12  1  0.169947  0.000000  0.390283  1
  O  O13  1  0.330053  0.000000  0.890283  1
  O  O14  1  0.998616  0.333311  0.107156  1
  O  O15  1  0.670960  0.000000  0.106355  1
  O  O16  1  0.829040  0.000000  0.606355  1
  O  O17  1  0.168073  0.333311  0.607156  1
  O  O18  1  0.499645  0.335331  0.389646  1
  O  O19  1  0.665025  0.335331  0.889646  1
  O  O20  1  0.331927  0.666689  0.107156  1
  O  O21  1  0.501384  0.666689  0.607156  1
  O  O22  1  0.834975  0.664669  0.389646  1
  O  O23  1  0.000355  0.664669  0.889646  1
