# generated using pymatgen
data_Li3Mn3O5F3
_symmetry_space_group_name_H-M   'P 1'
_cell_length_a   5.81840300
_cell_length_b   5.90587453
_cell_length_c   5.98772742
_cell_angle_alpha   92.75080811
_cell_angle_beta   119.06547996
_cell_angle_gamma   117.10615680
_symmetry_Int_Tables_number   1
_chemical_formula_structural   Li3Mn3O5F3
_chemical_formula_sum   'Li3 Mn3 O5 F3'
_cell_volume   150.19138832
_cell_formula_units_Z   1
loop_
 _symmetry_equiv_pos_site_id
 _symmetry_equiv_pos_as_xyz
  1  'x, y, z'
loop_
 _atom_site_type_symbol
 _atom_site_label
 _atom_site_symmetry_multiplicity
 _atom_site_fract_x
 _atom_site_fract_y
 _atom_site_fract_z
 _atom_site_occupancy
  Li  Li0  1  0.009327  0.022665  0.995538  1
  Li  Li1  1  0.241170  0.619657  0.870826  1
  Li  Li2  1  0.495995  0.230712  0.748053  1
  Mn  Mn3  1  0.749923  0.130077  0.381526  1
  Mn  Mn4  1  0.750030  0.613668  0.388110  1
  Mn  Mn5  1  0.249672  0.625413  0.375205  1
  O  O6  1  0.758086  0.386723  0.596866  1
  O  O7  1  0.302303  0.423910  0.164129  1
  O  O8  1  0.718996  0.872518  0.577361  1
  O  O9  1  0.780447  0.376663  0.177190  1
  O  O10  1  0.198092  0.828624  0.584650  1
  F  F11  1  0.258446  0.380784  0.640937  1
  F  F12  1  0.243934  0.867626  0.105956  1
  F  F13  1  0.743577  0.870960  0.143652  1
