# generated using pymatgen
data_LiVF3
_symmetry_space_group_name_H-M   'P 1'
_cell_length_a   5.69582411
_cell_length_b   5.69582411
_cell_length_c   5.69582342
_cell_angle_alpha   55.48790558
_cell_angle_beta   55.48790558
_cell_angle_gamma   55.48789700
_symmetry_Int_Tables_number   1
_chemical_formula_structural   LiVF3
_chemical_formula_sum   'Li2 V2 F6'
_cell_volume   116.97421440
_cell_formula_units_Z   2
loop_
 _symmetry_equiv_pos_site_id
 _symmetry_equiv_pos_as_xyz
  1  'x, y, z'
loop_
 _atom_site_type_symbol
 _atom_site_label
 _atom_site_symmetry_multiplicity
 _atom_site_fract_x
 _atom_site_fract_y
 _atom_site_fract_z
 _atom_site_occupancy
  Li  Li0  1  0.795711  0.795711  0.795711  1
  Li  Li1  1  0.295711  0.295711  0.295711  1
  V  V2  1  0.506418  0.506418  0.506418  1
  V  V3  1  0.006418  0.006418  0.006418  1
  F  F4  1  0.916708  0.599971  0.226289  1
  F  F5  1  0.416708  0.726289  0.099971  1
  F  F6  1  0.726289  0.099971  0.416708  1
  F  F7  1  0.599971  0.226289  0.916708  1
  F  F8  1  0.226289  0.916708  0.599971  1
  F  F9  1  0.099971  0.416708  0.726289  1
