# generated using pymatgen
data_Li3Co3OF7
_symmetry_space_group_name_H-M   'P 1'
_cell_length_a   6.06955524
_cell_length_b   6.07247105
_cell_length_c   10.53379645
_cell_angle_alpha   73.31468314
_cell_angle_beta   89.85157122
_cell_angle_gamma   119.82766694
_symmetry_Int_Tables_number   1
_chemical_formula_structural   Li3Co3OF7
_chemical_formula_sum   'Li6 Co6 O2 F14'
_cell_volume   317.65531790
_cell_formula_units_Z   2
loop_
 _symmetry_equiv_pos_site_id
 _symmetry_equiv_pos_as_xyz
  1  'x, y, z'
loop_
 _atom_site_type_symbol
 _atom_site_label
 _atom_site_symmetry_multiplicity
 _atom_site_fract_x
 _atom_site_fract_y
 _atom_site_fract_z
 _atom_site_occupancy
  Li  Li0  1  0.502254  0.998721  0.499140  1
  Li  Li1  1  0.002327  0.998507  0.999299  1
  Li  Li2  1  0.616065  0.255891  0.128100  1
  Li  Li3  1  0.116083  0.255778  0.628003  1
  Li  Li4  1  0.061809  0.625551  0.312652  1
  Li  Li5  1  0.561680  0.625267  0.812780  1
  Co  Co6  1  0.319208  0.611440  0.068502  1
  Co  Co7  1  0.819925  0.613027  0.568858  1
  Co  Co8  1  0.056129  0.611874  0.806589  1
  Co  Co9  1  0.081145  0.137396  0.306010  1
  Co  Co10  1  0.582247  0.137295  0.805608  1
  Co  Co11  1  0.556817  0.613067  0.305926  1
  O  O12  1  0.421340  0.386062  0.192574  1
  O  O13  1  0.921264  0.385386  0.692950  1
  F  F14  1  0.706015  0.862920  0.431152  1
  F  F15  1  0.205982  0.862424  0.931445  1
  F  F16  1  0.949617  0.385936  0.193405  1
  F  F17  1  0.449769  0.385923  0.693186  1
  F  F18  1  0.420820  0.856855  0.193492  1
  F  F19  1  0.920806  0.856556  0.692624  1
  F  F20  1  0.186129  0.385289  0.428420  1
  F  F21  1  0.686189  0.387084  0.928404  1
  F  F22  1  0.698169  0.395882  0.433948  1
  F  F23  1  0.199120  0.395864  0.933603  1
  F  F24  1  0.934905  0.867390  0.197967  1
  F  F25  1  0.433899  0.867307  0.698051  1
  F  F26  1  0.170097  0.867622  0.433696  1
  F  F27  1  0.670184  0.867683  0.933618  1
