# generated using pymatgen
data_Ni(PS3)2
_symmetry_space_group_name_H-M   'P 1'
_cell_length_a   5.82332658
_cell_length_b   5.82332658
_cell_length_c   6.97334320
_cell_angle_alpha   82.26290924
_cell_angle_beta   82.26290924
_cell_angle_gamma   119.98946318
_symmetry_Int_Tables_number   1
_chemical_formula_structural   Ni(PS3)2
_chemical_formula_sum   'Ni1 P2 S6'
_cell_volume   197.25262652
_cell_formula_units_Z   1
loop_
 _symmetry_equiv_pos_site_id
 _symmetry_equiv_pos_as_xyz
  1  'x, y, z'
loop_
 _atom_site_type_symbol
 _atom_site_label
 _atom_site_symmetry_multiplicity
 _atom_site_fract_x
 _atom_site_fract_y
 _atom_site_fract_z
 _atom_site_occupancy
  Ni  Ni0  1  0.666729  0.333271  0.000000  1
  P  P1  1  0.947089  0.947083  0.162487  1
  P  P2  1  0.052917  0.052911  0.837513  1
  S  S3  1  0.889353  0.566744  0.232526  1
  S  S4  1  0.752448  0.716826  0.767688  1
  S  S5  1  0.433256  0.110647  0.767474  1
  S  S6  1  0.602398  0.960561  0.233422  1
  S  S7  1  0.039439  0.397602  0.766578  1
  S  S8  1  0.283174  0.247552  0.232312  1
