# generated using pymatgen
data_Li2Fe2(CO3)3
_symmetry_space_group_name_H-M   'P 1'
_cell_length_a   6.11262309
_cell_length_b   6.11250745
_cell_length_c   9.82088303
_cell_angle_alpha   90.00572180
_cell_angle_beta   90.00541031
_cell_angle_gamma   109.00244566
_symmetry_Int_Tables_number   1
_chemical_formula_structural   Li2Fe2(CO3)3
_chemical_formula_sum   'Li4 Fe4 C6 O18'
_cell_volume   346.94547990
_cell_formula_units_Z   2
loop_
 _symmetry_equiv_pos_site_id
 _symmetry_equiv_pos_as_xyz
  1  'x, y, z'
loop_
 _atom_site_type_symbol
 _atom_site_label
 _atom_site_symmetry_multiplicity
 _atom_site_fract_x
 _atom_site_fract_y
 _atom_site_fract_z
 _atom_site_occupancy
  Li  Li0  1  0.894673  0.894681  0.999952  1
  Li  Li1  1  0.894692  0.894654  0.499962  1
  Li  Li2  1  0.619632  0.619598  0.249990  1
  Li  Li3  1  0.619607  0.619625  0.749985  1
  Fe  Fe4  1  0.264510  0.827394  0.750045  1
  Fe  Fe5  1  0.827348  0.264483  0.250083  1
  Fe  Fe6  1  0.264594  0.827387  0.250014  1
  Fe  Fe7  1  0.827449  0.264601  0.750076  1
  C  C8  1  0.247738  0.247740  0.249978  1
  C  C9  1  0.247753  0.247764  0.749994  1
  C  C10  1  0.447640  0.851876  0.999986  1
  C  C11  1  0.447572  0.851890  0.500004  1
  C  C12  1  0.851868  0.447599  0.000001  1
  C  C13  1  0.851857  0.447650  0.499999  1
  O  O14  1  0.059998  0.059974  0.249991  1
  O  O15  1  0.059994  0.059999  0.749993  1
  O  O16  1  0.245676  0.874207  0.999964  1
  O  O17  1  0.245667  0.874262  0.499977  1
  O  O18  1  0.874263  0.245645  0.999947  1
  O  O19  1  0.874196  0.245664  0.499952  1
  O  O20  1  0.218093  0.445851  0.250009  1
  O  O21  1  0.218100  0.445835  0.749996  1
  O  O22  1  0.445845  0.218196  0.249940  1
  O  O23  1  0.445855  0.218133  0.750043  1
  O  O24  1  0.549503  0.840039  0.114646  1
  O  O25  1  0.549521  0.840037  0.614652  1
  O  O26  1  0.840091  0.549473  0.114691  1
  O  O27  1  0.840063  0.549502  0.614679  1
  O  O28  1  0.549554  0.840044  0.385360  1
  O  O29  1  0.549554  0.840039  0.885354  1
  O  O30  1  0.840021  0.549577  0.385357  1
  O  O31  1  0.840050  0.549560  0.885380  1
