# generated using pymatgen
data_TmBiO3
_symmetry_space_group_name_H-M   'P 1'
_cell_length_a   6.10516530
_cell_length_b   6.10516530
_cell_length_c   6.10516523
_cell_angle_alpha   58.50968606
_cell_angle_beta   58.50968606
_cell_angle_gamma   58.50969275
_symmetry_Int_Tables_number   1
_chemical_formula_structural   TmBiO3
_chemical_formula_sum   'Tm2 Bi2 O6'
_cell_volume   155.42246880
_cell_formula_units_Z   2
loop_
 _symmetry_equiv_pos_site_id
 _symmetry_equiv_pos_as_xyz
  1  'x, y, z'
loop_
 _atom_site_type_symbol
 _atom_site_label
 _atom_site_symmetry_multiplicity
 _atom_site_fract_x
 _atom_site_fract_y
 _atom_site_fract_z
 _atom_site_occupancy
  Tm  Tm0  1  0.777988  0.777988  0.777988  1
  Tm  Tm1  1  0.277988  0.277988  0.277988  1
  Bi  Bi2  1  0.992126  0.992126  0.992126  1
  Bi  Bi3  1  0.492126  0.492126  0.492126  1
  O  O4  1  0.584946  0.924821  0.141709  1
  O  O5  1  0.641709  0.424821  0.084946  1
  O  O6  1  0.084946  0.641709  0.424821  1
  O  O7  1  0.141709  0.584946  0.924821  1
  O  O8  1  0.924821  0.141709  0.584946  1
  O  O9  1  0.424821  0.084946  0.641709  1
