# generated using pymatgen
data_Na5Fe2P2(CO7)2
_symmetry_space_group_name_H-M   'P 1'
_cell_length_a   5.24329323
_cell_length_b   11.21216178
_cell_length_c   11.21263602
_cell_angle_alpha   107.30705660
_cell_angle_beta   89.33288610
_cell_angle_gamma   90.67149826
_symmetry_Int_Tables_number   1
_chemical_formula_structural   Na5Fe2P2(CO7)2
_chemical_formula_sum   'Na10 Fe4 P4 C4 O28'
_cell_volume   629.26483524
_cell_formula_units_Z   2
loop_
 _symmetry_equiv_pos_site_id
 _symmetry_equiv_pos_as_xyz
  1  'x, y, z'
loop_
 _atom_site_type_symbol
 _atom_site_label
 _atom_site_symmetry_multiplicity
 _atom_site_fract_x
 _atom_site_fract_y
 _atom_site_fract_z
 _atom_site_occupancy
  Na  Na0  1  0.236916  0.913748  0.836313  1
  Na  Na1  1  0.236919  0.413687  0.336245  1
  Na  Na2  1  0.243199  0.879201  0.125942  1
  Na  Na3  1  0.243500  0.379196  0.625962  1
  Na  Na4  1  0.243298  0.124041  0.370783  1
  Na  Na5  1  0.243590  0.624021  0.870800  1
  Na  Na6  1  0.751513  0.876556  0.626615  1
  Na  Na7  1  0.751573  0.376557  0.126585  1
  Na  Na8  1  0.751562  0.123411  0.873448  1
  Na  Na9  1  0.751511  0.623384  0.373446  1
  Fe  Fe10  1  0.780235  0.197057  0.553036  1
  Fe  Fe11  1  0.780167  0.697005  0.052988  1
  Fe  Fe12  1  0.215711  0.301425  0.948568  1
  Fe  Fe13  1  0.215152  0.801444  0.448564  1
  P  P14  1  0.715671  0.913590  0.336439  1
  P  P15  1  0.715791  0.413558  0.836464  1
  P  P16  1  0.297345  0.083505  0.666465  1
  P  P17  1  0.297343  0.583514  0.166482  1
  C  C18  1  0.726438  0.343087  0.406914  1
  C  C19  1  0.726436  0.843090  0.906918  1
  C  C20  1  0.265657  0.662619  0.587379  1
  C  C21  1  0.266337  0.162639  0.087359  1
  O  O22  1  0.294768  0.093631  0.156368  1
  O  O23  1  0.294666  0.593630  0.656367  1
  O  O24  1  0.949186  0.311917  0.438069  1
  O  O25  1  0.949177  0.811913  0.938065  1
  O  O26  1  0.522126  0.301285  0.448707  1
  O  O27  1  0.522124  0.801274  0.948699  1
  O  O28  1  0.172979  0.160092  0.589880  1
  O  O29  1  0.172972  0.660102  0.089891  1
  O  O30  1  0.419639  0.894502  0.355489  1
  O  O31  1  0.419723  0.394502  0.855491  1
  O  O32  1  0.593043  0.090215  0.659769  1
  O  O33  1  0.593045  0.590283  0.159825  1
  O  O34  1  0.856210  0.837330  0.412651  1
  O  O35  1  0.856706  0.337404  0.912592  1
  O  O36  1  0.458944  0.711185  0.538813  1
  O  O37  1  0.460024  0.211198  0.038802  1
  O  O38  1  0.042435  0.694860  0.555138  1
  O  O39  1  0.043097  0.194875  0.055124  1
  O  O40  1  0.708080  0.914425  0.835579  1
  O  O41  1  0.708073  0.414424  0.335573  1
  O  O42  1  0.783269  0.863270  0.197251  1
  O  O43  1  0.783212  0.363206  0.697245  1
  O  O44  1  0.783386  0.052777  0.386761  1
  O  O45  1  0.783242  0.552773  0.886774  1
  O  O46  1  0.210851  0.942329  0.619994  1
  O  O47  1  0.211203  0.442315  0.119940  1
  O  O48  1  0.211202  0.130059  0.807670  1
  O  O49  1  0.210903  0.629980  0.307667  1
