# generated using pymatgen
data_LiCoSiO4
_symmetry_space_group_name_H-M   'P 1'
_cell_length_a   5.08464248
_cell_length_b   5.08464248
_cell_length_c   8.57161215
_cell_angle_alpha   75.76458096
_cell_angle_beta   75.76458096
_cell_angle_gamma   65.32781516
_symmetry_Int_Tables_number   1
_chemical_formula_structural   LiCoSiO4
_chemical_formula_sum   'Li2 Co2 Si2 O8'
_cell_volume   192.59402158
_cell_formula_units_Z   2
loop_
 _symmetry_equiv_pos_site_id
 _symmetry_equiv_pos_as_xyz
  1  'x, y, z'
loop_
 _atom_site_type_symbol
 _atom_site_label
 _atom_site_symmetry_multiplicity
 _atom_site_fract_x
 _atom_site_fract_y
 _atom_site_fract_z
 _atom_site_occupancy
  Li  Li0  1  0.709025  0.825082  0.537797  1
  Li  Li1  1  0.825082  0.709025  0.037797  1
  Co  Co2  1  0.327290  0.897151  0.860688  1
  Co  Co3  1  0.897151  0.327290  0.360688  1
  Si  Si4  1  0.726585  0.256389  0.744801  1
  Si  Si5  1  0.256389  0.726585  0.244801  1
  O  O6  1  0.033495  0.227781  0.788961  1
  O  O7  1  0.610071  0.025836  0.886281  1
  O  O8  1  0.519120  0.610511  0.727867  1
  O  O9  1  0.759092  0.160717  0.568556  1
  O  O10  1  0.227781  0.033495  0.288961  1
  O  O11  1  0.025836  0.610071  0.386281  1
  O  O12  1  0.610511  0.519120  0.227867  1
  O  O13  1  0.160717  0.759092  0.068556  1
