# generated using pymatgen
data_Li7FeO6
_symmetry_space_group_name_H-M   'P 1'
_cell_length_a   5.54504545
_cell_length_b   5.64013693
_cell_length_c   5.58293822
_cell_angle_alpha   119.56758864
_cell_angle_beta   120.06141473
_cell_angle_gamma   60.65642150
_symmetry_Int_Tables_number   1
_chemical_formula_structural   Li7FeO6
_chemical_formula_sum   'Li7 Fe1 O6'
_cell_volume   124.41111761
_cell_formula_units_Z   1
loop_
 _symmetry_equiv_pos_site_id
 _symmetry_equiv_pos_as_xyz
  1  'x, y, z'
loop_
 _atom_site_type_symbol
 _atom_site_label
 _atom_site_symmetry_multiplicity
 _atom_site_fract_x
 _atom_site_fract_y
 _atom_site_fract_z
 _atom_site_occupancy
  Li  Li0  1  0.230662  0.327488  0.504930  1
  Li  Li1  1  0.115906  0.684443  0.282753  1
  Li  Li2  1  0.487699  0.673315  0.882862  1
  Li  Li3  1  0.644506  0.037904  0.346732  1
  Li  Li4  1  0.495298  0.322749  0.055561  1
  Li  Li5  1  0.946552  0.318857  0.764321  1
  Li  Li6  1  0.721376  0.674109  0.514924  1
  Fe  Fe7  1  0.000603  0.997052  0.999303  1
  O  O8  1  0.075621  0.762426  0.637719  1
  O  O9  1  0.227594  0.239821  0.119889  1
  O  O10  1  0.648652  0.234817  0.770778  1
  O  O11  1  0.366781  0.762248  0.200044  1
  O  O12  1  0.802172  0.756953  0.922637  1
  O  O13  1  0.882297  0.232533  0.349071  1
