# generated using pymatgen
data_Li2AlNiO4
_symmetry_space_group_name_H-M   'P 1'
_cell_length_a   5.36602600
_cell_length_b   4.98207500
_cell_length_c   8.11536360
_cell_angle_alpha   52.09785934
_cell_angle_beta   90.00000000
_cell_angle_gamma   90.00000000
_symmetry_Int_Tables_number   1
_chemical_formula_structural   Li2AlNiO4
_chemical_formula_sum   'Li4 Al2 Ni2 O8'
_cell_volume   171.19129151
_cell_formula_units_Z   2
loop_
 _symmetry_equiv_pos_site_id
 _symmetry_equiv_pos_as_xyz
  1  'x, y, z'
loop_
 _atom_site_type_symbol
 _atom_site_label
 _atom_site_symmetry_multiplicity
 _atom_site_fract_x
 _atom_site_fract_y
 _atom_site_fract_z
 _atom_site_occupancy
  Li  Li0  1  0.670995  0.246058  0.248270  1
  Li  Li1  1  0.168528  0.501975  0.995212  1
  Li  Li2  1  0.329005  0.246058  0.748270  1
  Li  Li3  1  0.831472  0.501975  0.495212  1
  Al  Al4  1  0.326784  0.757833  0.245920  1
  Al  Al5  1  0.673216  0.757833  0.745920  1
  Ni  Ni6  1  0.827924  0.001607  0.000091  1
  Ni  Ni7  1  0.172076  0.001607  0.500091  1
  O  O8  1  0.315126  0.102144  0.259417  1
  O  O9  1  0.813697  0.399109  0.976866  1
  O  O10  1  0.839008  0.881455  0.518339  1
  O  O11  1  0.355814  0.667020  0.732985  1
  O  O12  1  0.684874  0.102144  0.759417  1
  O  O13  1  0.186303  0.399109  0.476866  1
  O  O14  1  0.160992  0.881455  0.018339  1
  O  O15  1  0.644186  0.667020  0.232985  1
