# generated using pymatgen
data_LiFePO4
_symmetry_space_group_name_H-M   'P 1'
_cell_length_a   4.36951100
_cell_length_b   5.56293451
_cell_length_c   8.31453558
_cell_angle_alpha   104.84924436
_cell_angle_beta   74.76590863
_cell_angle_gamma   113.12474075
_symmetry_Int_Tables_number   1
_chemical_formula_structural   LiFePO4
_chemical_formula_sum   'Li2 Fe2 P2 O8'
_cell_volume   176.64520837
_cell_formula_units_Z   2
loop_
 _symmetry_equiv_pos_site_id
 _symmetry_equiv_pos_as_xyz
  1  'x, y, z'
loop_
 _atom_site_type_symbol
 _atom_site_label
 _atom_site_symmetry_multiplicity
 _atom_site_fract_x
 _atom_site_fract_y
 _atom_site_fract_z
 _atom_site_occupancy
  Li  Li0  1  0.500000  0.250000  0.250000  1
  Li  Li1  1  0.500000  0.750000  0.750000  1
  Fe  Fe2  1  0.750000  0.375000  0.875000  1
  Fe  Fe3  1  0.750000  0.875000  0.375000  1
  P  P4  1  0.000000  0.000000  0.000000  1
  P  P5  1  0.000000  0.500000  0.500000  1
  O  O6  1  0.321782  0.238090  0.044752  1
  O  O7  1  0.321782  0.738090  0.544752  1
  O  O8  1  0.717158  0.967552  0.160891  1
  O  O9  1  0.717158  0.467552  0.660891  1
  O  O10  1  0.871557  0.551918  0.358579  1
  O  O11  1  0.871557  0.051918  0.858579  1
  O  O12  1  0.089503  0.242440  0.435778  1
  O  O13  1  0.089503  0.742440  0.935778  1
