# generated using pymatgen
data_LiCoGeO4
_symmetry_space_group_name_H-M   'P 1'
_cell_length_a   5.42989900
_cell_length_b   5.14067100
_cell_length_c   8.38079390
_cell_angle_alpha   52.00648860
_cell_angle_beta   90.00000000
_cell_angle_gamma   90.00000000
_symmetry_Int_Tables_number   1
_chemical_formula_structural   LiCoGeO4
_chemical_formula_sum   'Li2 Co2 Ge2 O8'
_cell_volume   184.36024968
_cell_formula_units_Z   2
loop_
 _symmetry_equiv_pos_site_id
 _symmetry_equiv_pos_as_xyz
  1  'x, y, z'
loop_
 _atom_site_type_symbol
 _atom_site_label
 _atom_site_symmetry_multiplicity
 _atom_site_fract_x
 _atom_site_fract_y
 _atom_site_fract_z
 _atom_site_occupancy
  Li  Li0  1  0.170226  0.504479  0.996367  1
  Li  Li1  1  0.829774  0.504479  0.496367  1
  Co  Co2  1  0.830670  0.998499  0.002815  1
  Co  Co3  1  0.169330  0.998499  0.502815  1
  Ge  Ge4  1  0.320010  0.757050  0.246293  1
  Ge  Ge5  1  0.679990  0.757050  0.746293  1
  O  O6  1  0.271652  0.084460  0.260925  1
  O  O7  1  0.842830  0.857994  0.530261  1
  O  O8  1  0.361340  0.702057  0.732930  1
  O  O9  1  0.826160  0.401308  0.960540  1
  O  O10  1  0.728348  0.084460  0.760925  1
  O  O11  1  0.157170  0.857994  0.030261  1
  O  O12  1  0.638660  0.702057  0.232930  1
  O  O13  1  0.173840  0.401308  0.460540  1
