# generated using pymatgen
data_VFe(P2O7)2
_symmetry_space_group_name_H-M   'P 1'
_cell_length_a   4.88804262
_cell_length_b   16.23593761
_cell_length_c   6.99073807
_cell_angle_alpha   90.52619250
_cell_angle_beta   105.40360287
_cell_angle_gamma   89.24529982
_symmetry_Int_Tables_number   1
_chemical_formula_structural   VFe(P2O7)2
_chemical_formula_sum   'V2 Fe2 P8 O28'
_cell_volume   534.81385269
_cell_formula_units_Z   2
loop_
 _symmetry_equiv_pos_site_id
 _symmetry_equiv_pos_as_xyz
  1  'x, y, z'
loop_
 _atom_site_type_symbol
 _atom_site_label
 _atom_site_symmetry_multiplicity
 _atom_site_fract_x
 _atom_site_fract_y
 _atom_site_fract_z
 _atom_site_occupancy
  V  V0  1  0.211748  0.752788  0.727431  1
  V  V1  1  0.211394  0.252826  0.727225  1
  Fe  Fe2  1  0.785021  0.503749  0.267492  1
  Fe  Fe3  1  0.784964  0.003687  0.267717  1
  P  P4  1  0.383562  0.093010  0.505155  1
  P  P5  1  0.383508  0.593000  0.505147  1
  P  P6  1  0.250569  0.384462  0.109118  1
  P  P7  1  0.250612  0.884457  0.109212  1
  P  P8  1  0.759347  0.135670  0.890756  1
  P  P9  1  0.759357  0.635645  0.890707  1
  P  P10  1  0.611616  0.346775  0.493512  1
  P  P11  1  0.611836  0.846793  0.493687  1
  O  O12  1  0.014268  0.168137  0.824525  1
  O  O13  1  0.014120  0.668155  0.824432  1
  O  O14  1  0.172239  0.326578  0.922554  1
  O  O15  1  0.172349  0.826535  0.922648  1
  O  O16  1  0.144631  0.032559  0.469664  1
  O  O17  1  0.144517  0.532575  0.469646  1
  O  O18  1  0.270438  0.182727  0.530314  1
  O  O19  1  0.270540  0.682736  0.530438  1
  O  O20  1  0.414335  0.336161  0.632086  1
  O  O21  1  0.414661  0.836163  0.632381  1
  O  O22  1  0.553818  0.209241  0.898994  1
  O  O23  1  0.553701  0.709171  0.899158  1
  O  O24  1  0.586437  0.073615  0.724802  1
  O  O25  1  0.586389  0.573561  0.724805  1
  O  O26  1  0.434950  0.320093  0.274242  1
  O  O27  1  0.434963  0.820115  0.274429  1
  O  O28  1  0.435840  0.454775  0.081237  1
  O  O29  1  0.435908  0.954748  0.081332  1
  O  O30  1  0.561700  0.094323  0.359268  1
  O  O31  1  0.561646  0.594320  0.359225  1
  O  O32  1  0.707916  0.434206  0.490425  1
  O  O33  1  0.707933  0.934224  0.490581  1
  O  O34  1  0.860132  0.284214  0.550421  1
  O  O35  1  0.860483  0.784260  0.550447  1
  O  O36  1  0.855744  0.087662  0.078862  1
  O  O37  1  0.855893  0.587630  0.078787  1
  O  O38  1  0.985507  0.408440  0.168402  1
  O  O39  1  0.985511  0.908448  0.168443  1
