# generated using pymatgen
data_Ge2N2O
_symmetry_space_group_name_H-M   'P 1'
_cell_length_a   5.57286188
_cell_length_b   5.57286188
_cell_length_c   5.35834863
_cell_angle_alpha   81.21232107
_cell_angle_beta   81.21232107
_cell_angle_gamma   122.19689892
_symmetry_Int_Tables_number   1
_chemical_formula_structural   Ge2N2O
_chemical_formula_sum   'Ge4 N4 O2'
_cell_volume   133.60185892
_cell_formula_units_Z   2
loop_
 _symmetry_equiv_pos_site_id
 _symmetry_equiv_pos_as_xyz
  1  'x, y, z'
loop_
 _atom_site_type_symbol
 _atom_site_label
 _atom_site_symmetry_multiplicity
 _atom_site_fract_x
 _atom_site_fract_y
 _atom_site_fract_z
 _atom_site_occupancy
  Ge  Ge0  1  0.822666  0.333371  0.505292  1
  Ge  Ge1  1  0.503982  0.667991  0.501680  1
  Ge  Ge2  1  0.333371  0.822666  0.005292  1
  Ge  Ge3  1  0.667991  0.503982  0.001680  1
  N  N4  1  0.586798  0.427115  0.363260  1
  N  N5  1  0.212803  0.664025  0.370474  1
  N  N6  1  0.427115  0.586798  0.863260  1
  N  N7  1  0.664025  0.212803  0.870474  1
  O  O8  1  0.049679  0.814901  0.884294  1
  O  O9  1  0.814901  0.049679  0.384294  1
