# generated using pymatgen
data_FePO4
_symmetry_space_group_name_H-M   'P 1'
_cell_length_a   5.33991269
_cell_length_b   9.11793165
_cell_length_c   9.11074719
_cell_angle_alpha   100.35868800
_cell_angle_beta   75.35912980
_cell_angle_gamma   88.46888615
_symmetry_Int_Tables_number   1
_chemical_formula_structural   FePO4
_chemical_formula_sum   'Fe4 P4 O16'
_cell_volume   420.97827706
_cell_formula_units_Z   4
loop_
 _symmetry_equiv_pos_site_id
 _symmetry_equiv_pos_as_xyz
  1  'x, y, z'
loop_
 _atom_site_type_symbol
 _atom_site_label
 _atom_site_symmetry_multiplicity
 _atom_site_fract_x
 _atom_site_fract_y
 _atom_site_fract_z
 _atom_site_occupancy
  Fe  Fe0  1  0.499671  0.500317  0.000124  1
  Fe  Fe1  1  0.750165  0.749936  0.499864  1
  Fe  Fe2  1  0.999846  0.000261  0.000073  1
  Fe  Fe3  1  0.250139  0.249929  0.499871  1
  P  P4  1  0.312231  0.562461  0.375145  1
  P  P5  1  0.562749  0.812573  0.874945  1
  P  P6  1  0.812239  0.062501  0.375107  1
  P  P7  1  0.062703  0.312495  0.874916  1
  O  O8  1  0.086499  0.670085  0.484539  1
  O  O9  1  0.336467  0.920082  0.983932  1
  O  O10  1  0.586485  0.170093  0.484538  1
  O  O11  1  0.836362  0.420068  0.983905  1
  O  O12  1  0.253928  0.397964  0.379821  1
  O  O13  1  0.504656  0.648004  0.879605  1
  O  O14  1  0.753935  0.897954  0.379816  1
  O  O15  1  0.004599  0.147983  0.879576  1
  O  O16  1  0.561934  0.593712  0.427995  1
  O  O17  1  0.812463  0.843745  0.927856  1
  O  O18  1  0.061945  0.093710  0.427980  1
  O  O19  1  0.312447  0.343723  0.927893  1
  O  O20  1  0.346472  0.588113  0.208287  1
  O  O21  1  0.597788  0.838096  0.707968  1
  O  O22  1  0.846489  0.088116  0.208262  1
  O  O23  1  0.097788  0.338084  0.707983  1
