# generated using pymatgen
data_Li4MnV2WO12
_symmetry_space_group_name_H-M   'P 1'
_cell_length_a   7.35442902
_cell_length_b   7.36805022
_cell_length_c   7.36968479
_cell_angle_alpha   93.17380250
_cell_angle_beta   93.10518415
_cell_angle_gamma   86.82779272
_symmetry_Int_Tables_number   1
_chemical_formula_structural   Li4MnV2WO12
_chemical_formula_sum   'Li8 Mn2 V4 W2 O24'
_cell_volume   397.60007975
_cell_formula_units_Z   2
loop_
 _symmetry_equiv_pos_site_id
 _symmetry_equiv_pos_as_xyz
  1  'x, y, z'
loop_
 _atom_site_type_symbol
 _atom_site_label
 _atom_site_symmetry_multiplicity
 _atom_site_fract_x
 _atom_site_fract_y
 _atom_site_fract_z
 _atom_site_occupancy
  Li  Li0  1  0.787412  0.311621  0.211229  1
  Li  Li1  1  0.287394  0.311609  0.711198  1
  Li  Li2  1  0.799266  0.773633  0.705120  1
  Li  Li3  1  0.299239  0.773565  0.205104  1
  Li  Li4  1  0.274331  0.758365  0.716964  1
  Li  Li5  1  0.774310  0.758370  0.216938  1
  Li  Li6  1  0.288319  0.308226  0.216904  1
  Li  Li7  1  0.788350  0.308212  0.716883  1
  Mn  Mn8  1  0.506458  0.507149  0.994416  1
  Mn  Mn9  1  0.006479  0.507255  0.494404  1
  V  V10  1  0.005754  0.511856  0.994152  1
  V  V11  1  0.505819  0.511884  0.494145  1
  V  V12  1  0.014285  0.004835  0.485822  1
  V  V13  1  0.514302  0.004827  0.985807  1
  W  W14  1  0.505788  0.006585  0.490866  1
  W  W15  1  0.005788  0.006572  0.990852  1
  O  O16  1  0.747081  0.433296  0.961098  1
  O  O17  1  0.247127  0.433327  0.461121  1
  O  O18  1  0.928869  0.746611  0.955146  1
  O  O19  1  0.428874  0.746622  0.455171  1
  O  O20  1  0.925538  0.051296  0.754077  1
  O  O21  1  0.425541  0.051287  0.254075  1
  O  O22  1  0.040977  0.438320  0.763935  1
  O  O23  1  0.540998  0.438323  0.263935  1
  O  O24  1  0.743727  0.928797  0.443013  1
  O  O25  1  0.243713  0.928786  0.943061  1
  O  O26  1  0.041053  0.749169  0.569758  1
  O  O27  1  0.540971  0.749169  0.069752  1
  O  O28  1  0.937457  0.230961  0.451464  1
  O  O29  1  0.437459  0.230957  0.951460  1
  O  O30  1  0.242552  0.049981  0.571437  1
  O  O31  1  0.742533  0.049974  0.071444  1
  O  O32  1  0.933780  0.541270  0.254868  1
  O  O33  1  0.433786  0.541264  0.754893  1
  O  O34  1  0.056483  0.930061  0.257091  1
  O  O35  1  0.556450  0.930077  0.757023  1
  O  O36  1  0.054127  0.242402  0.069876  1
  O  O37  1  0.554209  0.242401  0.569838  1
  O  O38  1  0.237887  0.546729  0.061669  1
  O  O39  1  0.737918  0.546758  0.561591  1
