# generated using pymatgen
data_Cr3Co(PO4)4
_symmetry_space_group_name_H-M   'P 1'
_cell_length_a   5.77906700
_cell_length_b   4.76110700
_cell_length_c   9.92565437
_cell_angle_alpha   89.54253654
_cell_angle_beta   90.00000000
_cell_angle_gamma   90.00000000
_symmetry_Int_Tables_number   1
_chemical_formula_structural   Cr3Co(PO4)4
_chemical_formula_sum   'Cr3 Co1 P4 O16'
_cell_volume   273.09325673
_cell_formula_units_Z   1
loop_
 _symmetry_equiv_pos_site_id
 _symmetry_equiv_pos_as_xyz
  1  'x, y, z'
loop_
 _atom_site_type_symbol
 _atom_site_label
 _atom_site_symmetry_multiplicity
 _atom_site_fract_x
 _atom_site_fract_y
 _atom_site_fract_z
 _atom_site_occupancy
  Cr  Cr0  1  0.000000  0.473644  0.770552  1
  Cr  Cr1  1  0.500000  0.527843  0.227390  1
  Cr  Cr2  1  0.500000  0.974455  0.729567  1
  Co  Co3  1  0.000000  0.053012  0.277007  1
  P  P4  1  0.500000  0.077745  0.406856  1
  P  P5  1  0.500000  0.414757  0.907857  1
  P  P6  1  0.000000  0.588511  0.096390  1
  P  P7  1  0.000000  0.917814  0.591100  1
  O  O8  1  0.500000  0.169293  0.553268  1
  O  O9  1  0.294712  0.229498  0.326744  1
  O  O10  1  0.705288  0.229498  0.326744  1
  O  O11  1  0.000000  0.234648  0.609444  1
  O  O12  1  0.000000  0.264271  0.110826  1
  O  O13  1  0.294178  0.266131  0.828250  1
  O  O14  1  0.705822  0.266131  0.828250  1
  O  O15  1  0.500000  0.325947  0.054516  1
  O  O16  1  0.000000  0.663493  0.946330  1
  O  O17  1  0.791954  0.731055  0.171120  1
  O  O18  1  0.208046  0.731055  0.171120  1
  O  O19  1  0.500000  0.732111  0.890471  1
  O  O20  1  0.500000  0.761819  0.391471  1
  O  O21  1  0.794409  0.766836  0.670728  1
  O  O22  1  0.205591  0.766836  0.670728  1
  O  O23  1  0.000000  0.833599  0.443272  1
