# generated using pymatgen
data_VO2F
_symmetry_space_group_name_H-M   'P 1'
_cell_length_a   5.21394405
_cell_length_b   5.21394405
_cell_length_c   5.22700785
_cell_angle_alpha   62.42320468
_cell_angle_beta   62.42320468
_cell_angle_gamma   57.94290995
_symmetry_Int_Tables_number   1
_chemical_formula_structural   VO2F
_chemical_formula_sum   'V2 O4 F2'
_cell_volume   102.18812315
_cell_formula_units_Z   2
loop_
 _symmetry_equiv_pos_site_id
 _symmetry_equiv_pos_as_xyz
  1  'x, y, z'
loop_
 _atom_site_type_symbol
 _atom_site_label
 _atom_site_symmetry_multiplicity
 _atom_site_fract_x
 _atom_site_fract_y
 _atom_site_fract_z
 _atom_site_occupancy
  V  V0  1  0.766564  0.237668  0.809500  1
  V  V1  1  0.237668  0.766564  0.309500  1
  O  O2  1  0.862804  0.541133  0.613186  1
  O  O3  1  0.043883  0.962846  0.602958  1
  O  O4  1  0.541133  0.862804  0.113186  1
  O  O5  1  0.962846  0.043883  0.102958  1
  F  F6  1  0.453474  0.374059  0.610708  1
  F  F7  1  0.374059  0.453474  0.110708  1
