# generated using pymatgen
data_FeSb3(PO4)4
_symmetry_space_group_name_H-M   'P 1'
_cell_length_a   6.92817300
_cell_length_b   4.98520600
_cell_length_c   10.23788269
_cell_angle_alpha   87.17433294
_cell_angle_beta   90.00000000
_cell_angle_gamma   90.00000000
_symmetry_Int_Tables_number   1
_chemical_formula_structural   FeSb3(PO4)4
_chemical_formula_sum   'Fe1 Sb3 P4 O16'
_cell_volume   353.16985344
_cell_formula_units_Z   1
loop_
 _symmetry_equiv_pos_site_id
 _symmetry_equiv_pos_as_xyz
  1  'x, y, z'
loop_
 _atom_site_type_symbol
 _atom_site_label
 _atom_site_symmetry_multiplicity
 _atom_site_fract_x
 _atom_site_fract_y
 _atom_site_fract_z
 _atom_site_occupancy
  Fe  Fe0  1  0.500000  0.968944  0.731270  1
  Sb  Sb1  1  0.000000  0.045621  0.281318  1
  Sb  Sb2  1  0.000000  0.454665  0.783414  1
  Sb  Sb3  1  0.500000  0.546074  0.222885  1
  P  P4  1  0.500000  0.089832  0.413159  1
  P  P5  1  0.500000  0.377835  0.891526  1
  P  P6  1  0.000000  0.631221  0.091176  1
  P  P7  1  0.000000  0.899735  0.599656  1
  O  O8  1  0.500000  0.135169  0.560413  1
  O  O9  1  0.327140  0.241498  0.339986  1
  O  O10  1  0.672860  0.241498  0.339986  1
  O  O11  1  0.000000  0.206133  0.601010  1
  O  O12  1  0.000000  0.324895  0.097506  1
  O  O13  1  0.326977  0.238462  0.821095  1
  O  O14  1  0.673023  0.238462  0.821095  1
  O  O15  1  0.500000  0.314855  0.038470  1
  O  O16  1  0.000000  0.739448  0.948340  1
  O  O17  1  0.827134  0.753618  0.173460  1
  O  O18  1  0.172866  0.753618  0.173460  1
  O  O19  1  0.500000  0.683171  0.859596  1
  O  O20  1  0.500000  0.787892  0.394335  1
  O  O21  1  0.824340  0.763923  0.678725  1
  O  O22  1  0.175660  0.763923  0.678725  1
  O  O23  1  0.000000  0.799511  0.459393  1
