# generated using pymatgen
data_GeS2
_symmetry_space_group_name_H-M   'P 1'
_cell_length_a   6.11900800
_cell_length_b   6.11900800
_cell_length_c   6.11900800
_cell_angle_alpha   123.57483737
_cell_angle_beta   123.57483737
_cell_angle_gamma   83.91225427
_symmetry_Int_Tables_number   1
_chemical_formula_structural   GeS2
_chemical_formula_sum   'Ge2 S4'
_cell_volume   152.30994740
_cell_formula_units_Z   2
loop_
 _symmetry_equiv_pos_site_id
 _symmetry_equiv_pos_as_xyz
  1  'x, y, z'
loop_
 _atom_site_type_symbol
 _atom_site_label
 _atom_site_symmetry_multiplicity
 _atom_site_fract_x
 _atom_site_fract_y
 _atom_site_fract_z
 _atom_site_occupancy
  Ge  Ge0  1  0.750000  0.250000  0.500000  1
  Ge  Ge1  1  0.000000  0.000000  0.000000  1
  S  S2  1  0.875000  0.901169  0.526169  1
  S  S3  1  0.098831  0.625000  0.973831  1
  S  S4  1  0.375000  0.348831  0.473831  1
  S  S5  1  0.651169  0.125000  0.026169  1
