# generated using pymatgen
data_FeSbO4
_symmetry_space_group_name_H-M   'P 1'
_cell_length_a   5.63929707
_cell_length_b   5.63930014
_cell_length_c   5.63929875
_cell_angle_alpha   67.26209591
_cell_angle_beta   107.85943844
_cell_angle_gamma   72.13323650
_symmetry_Int_Tables_number   1
_chemical_formula_structural   FeSbO4
_chemical_formula_sum   'Fe2 Sb2 O8'
_cell_volume   137.71638762
_cell_formula_units_Z   2
loop_
 _symmetry_equiv_pos_site_id
 _symmetry_equiv_pos_as_xyz
  1  'x, y, z'
loop_
 _atom_site_type_symbol
 _atom_site_label
 _atom_site_symmetry_multiplicity
 _atom_site_fract_x
 _atom_site_fract_y
 _atom_site_fract_z
 _atom_site_occupancy
  Fe  Fe0  1  0.000000  0.509800  0.490200  1
  Fe  Fe1  1  0.499999  0.759786  0.740214  1
  Sb  Sb2  1  0.500000  0.242586  0.257414  1
  Sb  Sb3  1  0.000000  0.992591  0.007410  1
  O  O4  1  0.803441  0.753800  0.049641  1
  O  O5  1  0.303440  0.200352  0.496208  1
  O  O6  1  0.696560  0.807231  0.496209  1
  O  O7  1  0.196560  0.753800  0.442760  1
  O  O8  1  0.808376  0.244984  0.563392  1
  O  O9  1  0.308380  0.686663  0.004956  1
  O  O10  1  0.691620  0.303424  0.004957  1
  O  O11  1  0.191624  0.244984  0.946640  1
