# generated using pymatgen
data_VO2F
_symmetry_space_group_name_H-M   'P 1'
_cell_length_a   5.27332207
_cell_length_b   5.27332207
_cell_length_c   13.08492725
_cell_angle_alpha   88.45360676
_cell_angle_beta   88.45360676
_cell_angle_gamma   58.62673191
_symmetry_Int_Tables_number   1
_chemical_formula_structural   VO2F
_chemical_formula_sum   'V6 O12 F6'
_cell_volume   310.51658464
_cell_formula_units_Z   6
loop_
 _symmetry_equiv_pos_site_id
 _symmetry_equiv_pos_as_xyz
  1  'x, y, z'
loop_
 _atom_site_type_symbol
 _atom_site_label
 _atom_site_symmetry_multiplicity
 _atom_site_fract_x
 _atom_site_fract_y
 _atom_site_fract_z
 _atom_site_occupancy
  V  V0  1  0.069716  0.986088  0.505065  1
  V  V1  1  0.986088  0.069716  0.005065  1
  V  V2  1  0.341259  0.370910  0.169950  1
  V  V3  1  0.727850  0.647464  0.338480  1
  V  V4  1  0.370910  0.341259  0.669950  1
  V  V5  1  0.647464  0.727850  0.838480  1
  O  O6  1  0.990488  0.424426  0.248555  1
  O  O7  1  0.889622  0.342559  0.916068  1
  O  O8  1  0.642113  0.247576  0.082637  1
  O  O9  1  0.424426  0.990488  0.748555  1
  O  O10  1  0.216805  0.097422  0.081292  1
  O  O11  1  0.913935  0.738030  0.412697  1
  O  O12  1  0.572034  0.406504  0.746433  1
  O  O13  1  0.406504  0.572034  0.246433  1
  O  O14  1  0.097422  0.216805  0.581292  1
  O  O15  1  0.738030  0.913935  0.912697  1
  O  O16  1  0.247576  0.642113  0.582637  1
  O  O17  1  0.342559  0.889622  0.416068  1
  F  F18  1  0.566714  0.996199  0.248860  1
  F  F19  1  0.674390  0.064929  0.582784  1
  F  F20  1  0.753938  0.319030  0.417179  1
  F  F21  1  0.996199  0.566714  0.748860  1
  F  F22  1  0.319030  0.753938  0.917179  1
  F  F23  1  0.064929  0.674390  0.082784  1
