# generated using pymatgen
data_Li4VF8
_symmetry_space_group_name_H-M   'P 1'
_cell_length_a   6.08210500
_cell_length_b   5.17624600
_cell_length_c   5.27266562
_cell_angle_alpha   67.87841527
_cell_angle_beta   90.00000000
_cell_angle_gamma   90.00000000
_symmetry_Int_Tables_number   1
_chemical_formula_structural   Li4VF8
_chemical_formula_sum   'Li4 V1 F8'
_cell_volume   153.77701442
_cell_formula_units_Z   1
loop_
 _symmetry_equiv_pos_site_id
 _symmetry_equiv_pos_as_xyz
  1  'x, y, z'
loop_
 _atom_site_type_symbol
 _atom_site_label
 _atom_site_symmetry_multiplicity
 _atom_site_fract_x
 _atom_site_fract_y
 _atom_site_fract_z
 _atom_site_occupancy
  Li  Li0  1  0.815301  0.000000  0.500000  1
  Li  Li1  1  0.007875  0.500000  0.500000  1
  Li  Li2  1  0.764161  0.500000  0.000000  1
  Li  Li3  1  0.210261  0.500000  0.000000  1
  V  V4  1  0.495988  0.500000  0.500000  1
  F  F5  1  0.510325  0.704847  0.732941  1
  F  F6  1  0.981652  0.698706  0.738386  1
  F  F7  1  0.718660  0.737606  0.283739  1
  F  F8  1  0.279328  0.713670  0.266775  1
  F  F9  1  0.279328  0.286330  0.733225  1
  F  F10  1  0.718660  0.262394  0.716261  1
  F  F11  1  0.981652  0.301294  0.261614  1
  F  F12  1  0.510325  0.295153  0.267059  1
