# generated using pymatgen
data_CrSbO4
_symmetry_space_group_name_H-M   'P 1'
_cell_length_a   5.59523740
_cell_length_b   5.59523622
_cell_length_c   5.59522753
_cell_angle_alpha   138.47327217
_cell_angle_beta   138.47338022
_cell_angle_gamma   60.17904672
_symmetry_Int_Tables_number   1
_chemical_formula_structural   CrSbO4
_chemical_formula_sum   'Cr1 Sb1 O4'
_cell_volume   76.19151992
_cell_formula_units_Z   1
loop_
 _symmetry_equiv_pos_site_id
 _symmetry_equiv_pos_as_xyz
  1  'x, y, z'
loop_
 _atom_site_type_symbol
 _atom_site_label
 _atom_site_symmetry_multiplicity
 _atom_site_fract_x
 _atom_site_fract_y
 _atom_site_fract_z
 _atom_site_occupancy
  Cr  Cr0  1  0.750017  0.249998  0.500005  1
  Sb  Sb1  1  0.999997  0.000001  0.999999  1
  O  O2  1  0.541763  0.041767  0.499999  1
  O  O3  1  0.204692  0.204696  0.999999  1
  O  O4  1  0.958230  0.458234  0.499999  1
  O  O5  1  0.795301  0.795305  0.999999  1
