# generated using pymatgen
data_Li4NbCr(WO6)2
_symmetry_space_group_name_H-M   'P 1'
_cell_length_a   5.17951862
_cell_length_b   7.54599776
_cell_length_c   10.95467136
_cell_angle_alpha   85.69951567
_cell_angle_beta   89.88000703
_cell_angle_gamma   90.02341695
_symmetry_Int_Tables_number   1
_chemical_formula_structural   Li4NbCr(WO6)2
_chemical_formula_sum   'Li8 Nb2 Cr2 W4 O24'
_cell_volume   426.95285406
_cell_formula_units_Z   2
loop_
 _symmetry_equiv_pos_site_id
 _symmetry_equiv_pos_as_xyz
  1  'x, y, z'
loop_
 _atom_site_type_symbol
 _atom_site_label
 _atom_site_symmetry_multiplicity
 _atom_site_fract_x
 _atom_site_fract_y
 _atom_site_fract_z
 _atom_site_occupancy
  Li  Li0  1  0.000554  0.269522  0.293204  1
  Li  Li1  1  0.000563  0.269498  0.793176  1
  Li  Li2  1  0.497238  0.805656  0.530897  1
  Li  Li3  1  0.497249  0.805604  0.030850  1
  Li  Li4  1  0.995848  0.806612  0.289769  1
  Li  Li5  1  0.995876  0.806556  0.789743  1
  Li  Li6  1  0.504277  0.244761  0.008615  1
  Li  Li7  1  0.504289  0.244719  0.508634  1
  Nb  Nb8  1  0.502845  0.511763  0.258609  1
  Nb  Nb9  1  0.502832  0.511767  0.758585  1
  Cr  Cr10  1  0.000510  0.997018  0.999797  1
  Cr  Cr11  1  0.000549  0.997026  0.499784  1
  W  W12  1  0.996725  0.497951  0.509427  1
  W  W13  1  0.505666  0.009016  0.247468  1
  W  W14  1  0.996728  0.497933  0.009443  1
  W  W15  1  0.505668  0.009019  0.747434  1
  O  O16  1  0.307336  0.431279  0.403299  1
  O  O17  1  0.307320  0.431274  0.903305  1
  O  O18  1  0.117036  0.736389  0.493689  1
  O  O19  1  0.116986  0.736386  0.993706  1
  O  O20  1  0.317041  0.046860  0.594895  1
  O  O21  1  0.317019  0.046906  0.094892  1
  O  O22  1  0.181826  0.430892  0.652556  1
  O  O23  1  0.181862  0.430886  0.152535  1
  O  O24  1  0.794044  0.932498  0.651631  1
  O  O25  1  0.794077  0.932495  0.151621  1
  O  O26  1  0.373554  0.747963  0.745283  1
  O  O27  1  0.373544  0.747970  0.245284  1
  O  O28  1  0.622209  0.248339  0.742701  1
  O  O29  1  0.622207  0.248331  0.242701  1
  O  O30  1  0.198883  0.049647  0.840829  1
  O  O31  1  0.198901  0.049643  0.340820  1
  O  O32  1  0.820751  0.555748  0.840237  1
  O  O33  1  0.820732  0.555749  0.340229  1
  O  O34  1  0.693975  0.936187  0.894176  1
  O  O35  1  0.693947  0.936186  0.394159  1
  O  O36  1  0.885961  0.256869  0.987823  1
  O  O37  1  0.885896  0.256887  0.487826  1
  O  O38  1  0.683751  0.556297  0.086380  1
  O  O39  1  0.683728  0.556300  0.586389  1
