# generated using pymatgen
data_LiMn2(PO4)2
_symmetry_space_group_name_H-M   'P 1'
_cell_length_a   5.00767915
_cell_length_b   5.00767737
_cell_length_c   7.24162478
_cell_angle_alpha   91.10399384
_cell_angle_beta   88.89639734
_cell_angle_gamma   92.34940572
_symmetry_Int_Tables_number   1
_chemical_formula_structural   LiMn2(PO4)2
_chemical_formula_sum   'Li1 Mn2 P2 O8'
_cell_volume   181.37973752
_cell_formula_units_Z   1
loop_
 _symmetry_equiv_pos_site_id
 _symmetry_equiv_pos_as_xyz
  1  'x, y, z'
loop_
 _atom_site_type_symbol
 _atom_site_label
 _atom_site_symmetry_multiplicity
 _atom_site_fract_x
 _atom_site_fract_y
 _atom_site_fract_z
 _atom_site_occupancy
  Li  Li0  1  0.494423  0.494422  0.000001  1
  Mn  Mn1  1  0.955588  0.955585  0.999998  1
  Mn  Mn2  1  0.536756  0.536782  0.500016  1
  P  P3  1  0.487468  0.010590  0.244544  1
  P  P4  1  0.010593  0.487464  0.755453  1
  O  O5  1  0.572198  0.713445  0.232477  1
  O  O6  1  0.647033  0.151251  0.077808  1
  O  O7  1  0.135554  0.564286  0.569492  1
  O  O8  1  0.187464  0.043922  0.209027  1
  O  O9  1  0.043921  0.187464  0.790973  1
  O  O10  1  0.564288  0.135559  0.430503  1
  O  O11  1  0.151261  0.647024  0.922186  1
  O  O12  1  0.713451  0.572206  0.767522  1
