# generated using pymatgen
data_BeH4NF3
_symmetry_space_group_name_H-M   'P 1'
_cell_length_a   4.37137700
_cell_length_b   6.01780300
_cell_length_c   13.95821000
_cell_angle_alpha   90.00000000
_cell_angle_beta   90.00000000
_cell_angle_gamma   90.00000000
_symmetry_Int_Tables_number   1
_chemical_formula_structural   BeH4NF3
_chemical_formula_sum   'Be4 H16 N4 F12'
_cell_volume   367.18586743
_cell_formula_units_Z   4
loop_
 _symmetry_equiv_pos_site_id
 _symmetry_equiv_pos_as_xyz
  1  'x, y, z'
loop_
 _atom_site_type_symbol
 _atom_site_label
 _atom_site_symmetry_multiplicity
 _atom_site_fract_x
 _atom_site_fract_y
 _atom_site_fract_z
 _atom_site_occupancy
  Be  Be0  1  0.591546  0.528611  0.618368  1
  Be  Be1  1  0.908454  0.471389  0.118368  1
  Be  Be2  1  0.408454  0.028611  0.881632  1
  Be  Be3  1  0.091546  0.971389  0.381632  1
  H  H4  1  0.005073  0.056590  0.716383  1
  H  H5  1  0.494927  0.943410  0.216383  1
  H  H6  1  0.994927  0.556590  0.783617  1
  H  H7  1  0.505073  0.443410  0.283617  1
  H  H8  1  0.210465  0.951610  0.624634  1
  H  H9  1  0.289535  0.048390  0.124634  1
  H  H10  1  0.789535  0.451610  0.875366  1
  H  H11  1  0.710465  0.548390  0.375366  1
  H  H12  1  0.820276  0.947760  0.622983  1
  H  H13  1  0.679724  0.052240  0.122983  1
  H  H14  1  0.179724  0.447760  0.877017  1
  H  H15  1  0.320276  0.552240  0.377017  1
  H  H16  1  0.007466  0.197380  0.612064  1
  H  H17  1  0.492534  0.802620  0.112064  1
  H  H18  1  0.992534  0.697380  0.887936  1
  H  H19  1  0.507466  0.302620  0.387936  1
  N  N20  1  0.012526  0.037815  0.643261  1
  N  N21  1  0.487474  0.962185  0.143261  1
  N  N22  1  0.987474  0.537815  0.856739  1
  N  N23  1  0.512526  0.462185  0.356739  1
  F  F24  1  0.867300  0.448567  0.566865  1
  F  F25  1  0.632700  0.551433  0.066865  1
  F  F26  1  0.132700  0.948567  0.933135  1
  F  F27  1  0.367300  0.051433  0.433135  1
  F  F28  1  0.432344  0.380294  0.685334  1
  F  F29  1  0.067656  0.619706  0.185334  1
  F  F30  1  0.567656  0.880294  0.814666  1
  F  F31  1  0.932344  0.119706  0.314666  1
  F  F32  1  0.513285  0.768812  0.608351  1
  F  F33  1  0.986715  0.231188  0.108351  1
  F  F34  1  0.486715  0.268812  0.891649  1
  F  F35  1  0.013285  0.731188  0.391649  1
