# generated using pymatgen
data_Li2Cr(CO3)2
_symmetry_space_group_name_H-M   'P 1'
_cell_length_a   8.75062526
_cell_length_b   6.10373664
_cell_length_c   5.50410158
_cell_angle_alpha   63.23435347
_cell_angle_beta   71.81372148
_cell_angle_gamma   81.96627195
_symmetry_Int_Tables_number   1
_chemical_formula_structural   Li2Cr(CO3)2
_chemical_formula_sum   'Li4 Cr2 C4 O12'
_cell_volume   249.37192057
_cell_formula_units_Z   2
loop_
 _symmetry_equiv_pos_site_id
 _symmetry_equiv_pos_as_xyz
  1  'x, y, z'
loop_
 _atom_site_type_symbol
 _atom_site_label
 _atom_site_symmetry_multiplicity
 _atom_site_fract_x
 _atom_site_fract_y
 _atom_site_fract_z
 _atom_site_occupancy
  Li  Li0  1  0.647660  0.904613  0.558162  1
  Li  Li1  1  0.147706  0.593161  0.712086  1
  Li  Li2  1  0.852486  0.404110  0.454792  1
  Li  Li3  1  0.352263  0.093385  0.109946  1
  Cr  Cr4  1  0.500364  0.499378  0.258811  1
  Cr  Cr5  1  0.999787  0.998098  0.009235  1
  C  C6  1  0.698685  0.945195  0.971280  1
  C  C7  1  0.198309  0.553107  0.166917  1
  C  C8  1  0.802019  0.444701  0.919155  1
  C  C9  1  0.301548  0.053290  0.615058  1
  O  O10  1  0.784370  0.030444  0.712048  1
  O  O11  1  0.756978  0.927623  0.169900  1
  O  O12  1  0.550242  0.872109  0.039696  1
  O  O13  1  0.049493  0.625690  0.165071  1
  O  O14  1  0.257695  0.570134  0.347305  1
  O  O15  1  0.283031  0.469020  0.991275  1
  O  O16  1  0.717447  0.530172  0.743123  1
  O  O17  1  0.742718  0.427359  0.175707  1
  O  O18  1  0.950468  0.370878  0.842644  1
  O  O19  1  0.450122  0.127155  0.464561  1
  O  O20  1  0.242401  0.070277  0.854448  1
  O  O21  1  0.216944  0.967990  0.524234  1
