# generated using pymatgen
data_FeOF
_symmetry_space_group_name_H-M   'P 1'
_cell_length_a   3.08140700
_cell_length_b   4.78374100
_cell_length_c   9.55164500
_cell_angle_alpha   86.65172753
_cell_angle_beta   90.00000000
_cell_angle_gamma   90.00000000
_symmetry_Int_Tables_number   1
_chemical_formula_structural   FeOF
_chemical_formula_sum   'Fe4 O4 F4'
_cell_volume   140.55713821
_cell_formula_units_Z   4
loop_
 _symmetry_equiv_pos_site_id
 _symmetry_equiv_pos_as_xyz
  1  'x, y, z'
loop_
 _atom_site_type_symbol
 _atom_site_label
 _atom_site_symmetry_multiplicity
 _atom_site_fract_x
 _atom_site_fract_y
 _atom_site_fract_z
 _atom_site_occupancy
  Fe  Fe0  1  0.000000  0.946978  0.999974  1
  Fe  Fe1  1  0.000000  0.013307  0.498961  1
  Fe  Fe2  1  0.500000  0.483598  0.248562  1
  Fe  Fe3  1  0.500000  0.558928  0.749945  1
  O  O4  1  0.500000  0.802965  0.902676  1
  O  O5  1  0.000000  0.682149  0.157740  1
  O  O6  1  0.000000  0.709724  0.646721  1
  O  O7  1  0.000000  0.295921  0.352474  1
  F  F8  1  0.500000  0.813137  0.405291  1
  F  F9  1  0.000000  0.308090  0.845383  1
  F  F10  1  0.500000  0.182974  0.091430  1
  F  F11  1  0.500000  0.202229  0.600844  1
