# generated using pymatgen
data_Li2CoSi3O8
_symmetry_space_group_name_H-M   'P 1'
_cell_length_a   6.50039127
_cell_length_b   8.59031100
_cell_length_c   13.13691938
_cell_angle_alpha   90.00042335
_cell_angle_beta   77.62152020
_cell_angle_gamma   90.00075199
_symmetry_Int_Tables_number   1
_chemical_formula_structural   Li2CoSi3O8
_chemical_formula_sum   'Li8 Co4 Si12 O32'
_cell_volume   716.51718887
_cell_formula_units_Z   4
loop_
 _symmetry_equiv_pos_site_id
 _symmetry_equiv_pos_as_xyz
  1  'x, y, z'
loop_
 _atom_site_type_symbol
 _atom_site_label
 _atom_site_symmetry_multiplicity
 _atom_site_fract_x
 _atom_site_fract_y
 _atom_site_fract_z
 _atom_site_occupancy
  Li  Li0  1  0.742453  0.304708  0.126465  1
  Li  Li1  1  0.242298  0.304810  0.626414  1
  Li  Li2  1  0.757699  0.804801  0.373582  1
  Li  Li3  1  0.257522  0.804686  0.873522  1
  Li  Li4  1  0.274143  0.775112  0.250509  1
  Li  Li5  1  0.774032  0.774975  0.750549  1
  Li  Li6  1  0.225924  0.274962  0.249484  1
  Li  Li7  1  0.725853  0.275023  0.749517  1
  Co  Co8  1  0.342434  0.999520  0.694712  1
  Co  Co9  1  0.657548  0.499529  0.305282  1
  Co  Co10  1  0.842438  0.999440  0.194715  1
  Co  Co11  1  0.157569  0.499432  0.805286  1
  Si  Si12  1  0.388540  0.525076  0.015912  1
  Si  Si13  1  0.888494  0.525179  0.515919  1
  Si  Si14  1  0.111487  0.025177  0.484074  1
  Si  Si15  1  0.611487  0.025078  0.984087  1
  Si  Si16  1  0.202467  0.194016  0.046675  1
  Si  Si17  1  0.702468  0.194126  0.546685  1
  Si  Si18  1  0.297520  0.694133  0.453312  1
  Si  Si19  1  0.797554  0.694016  0.953331  1
  Si  Si20  1  0.000759  0.662822  0.141923  1
  Si  Si21  1  0.500662  0.662883  0.641909  1
  Si  Si22  1  0.499320  0.162881  0.358087  1
  Si  Si23  1  0.999263  0.162821  0.858083  1
  O  O24  1  0.948489  0.739832  0.034002  1
  O  O25  1  0.448414  0.739959  0.533998  1
  O  O26  1  0.551556  0.239948  0.466012  1
  O  O27  1  0.051533  0.239828  0.966005  1
  O  O28  1  0.356699  0.049873  0.995465  1
  O  O29  1  0.856706  0.050009  0.495448  1
  O  O30  1  0.143283  0.550013  0.504537  1
  O  O31  1  0.643325  0.549882  0.004538  1
  O  O32  1  0.356179  0.343271  0.056985  1
  O  O33  1  0.856199  0.343373  0.556997  1
  O  O34  1  0.143801  0.843373  0.442989  1
  O  O35  1  0.643852  0.843275  0.943005  1
  O  O36  1  0.688656  0.065567  0.088575  1
  O  O37  1  0.188645  0.065664  0.588576  1
  O  O38  1  0.811313  0.565674  0.411426  1
  O  O39  1  0.311379  0.565558  0.911420  1
  O  O40  1  0.263236  0.634305  0.115414  1
  O  O41  1  0.763145  0.634387  0.615415  1
  O  O42  1  0.236840  0.134395  0.384579  1
  O  O43  1  0.736786  0.134310  0.884585  1
  O  O44  1  0.069072  0.159344  0.162977  1
  O  O45  1  0.569087  0.159423  0.662974  1
  O  O46  1  0.430915  0.659444  0.337024  1
  O  O47  1  0.930960  0.659357  0.837026  1
  O  O48  1  0.874119  0.502610  0.174188  1
  O  O49  1  0.374035  0.502676  0.674150  1
  O  O50  1  0.625937  0.002674  0.325840  1
  O  O51  1  0.125894  0.002608  0.825816  1
  O  O52  1  0.969874  0.798675  0.230915  1
  O  O53  1  0.469770  0.798710  0.730933  1
  O  O54  1  0.530218  0.298715  0.269069  1
  O  O55  1  0.030150  0.298665  0.769083  1
