# generated using pymatgen
data_Li2MnO2F
_symmetry_space_group_name_H-M   'P 1'
_cell_length_a   5.16196214
_cell_length_b   7.91097669
_cell_length_c   5.88868005
_cell_angle_alpha   79.36007578
_cell_angle_beta   73.40059490
_cell_angle_gamma   77.85115207
_symmetry_Int_Tables_number   1
_chemical_formula_structural   Li2MnO2F
_chemical_formula_sum   'Li8 Mn4 O8 F4'
_cell_volume   223.28987125
_cell_formula_units_Z   4
loop_
 _symmetry_equiv_pos_site_id
 _symmetry_equiv_pos_as_xyz
  1  'x, y, z'
loop_
 _atom_site_type_symbol
 _atom_site_label
 _atom_site_symmetry_multiplicity
 _atom_site_fract_x
 _atom_site_fract_y
 _atom_site_fract_z
 _atom_site_occupancy
  Li  Li0  1  0.996972  0.497980  0.257091  1
  Li  Li1  1  0.496975  0.997980  0.757091  1
  Li  Li2  1  0.004461  0.500375  0.754466  1
  Li  Li3  1  0.504466  0.000375  0.254464  1
  Li  Li4  1  0.490647  0.687753  0.077988  1
  Li  Li5  1  0.990643  0.187758  0.577984  1
  Li  Li6  1  0.473190  0.348482  0.917023  1
  Li  Li7  1  0.973188  0.848482  0.417025  1
  Mn  Mn8  1  0.488460  0.315114  0.434462  1
  Mn  Mn9  1  0.032943  0.163160  0.086042  1
  Mn  Mn10  1  0.988455  0.815178  0.934456  1
  Mn  Mn11  1  0.532788  0.663211  0.586025  1
  O  O12  1  0.264276  0.605509  0.890835  1
  O  O13  1  0.764281  0.105502  0.390837  1
  O  O14  1  0.210126  0.920287  0.075755  1
  O  O15  1  0.710124  0.420290  0.575757  1
  O  O16  1  0.237049  0.239988  0.769742  1
  O  O17  1  0.737058  0.739991  0.269728  1
  O  O18  1  0.771897  0.751531  0.758473  1
  O  O19  1  0.271906  0.251534  0.258481  1
  F  F20  1  0.253429  0.564443  0.409502  1
  F  F21  1  0.753428  0.064442  0.909500  1
  F  F22  1  0.776618  0.405318  0.068630  1
  F  F23  1  0.276616  0.905317  0.568636  1
