# generated using pymatgen
data_Zr3N2O3
_symmetry_space_group_name_H-M   'P 1'
_cell_length_a   5.77220171
_cell_length_b   5.77220171
_cell_length_c   10.82210187
_cell_angle_alpha   89.53823874
_cell_angle_beta   89.53823874
_cell_angle_gamma   41.10903034
_symmetry_Int_Tables_number   1
_chemical_formula_structural   Zr3N2O3
_chemical_formula_sum   'Zr6 N4 O6'
_cell_volume   237.06657563
_cell_formula_units_Z   2
loop_
 _symmetry_equiv_pos_site_id
 _symmetry_equiv_pos_as_xyz
  1  'x, y, z'
loop_
 _atom_site_type_symbol
 _atom_site_label
 _atom_site_symmetry_multiplicity
 _atom_site_fract_x
 _atom_site_fract_y
 _atom_site_fract_z
 _atom_site_occupancy
  Zr  Zr0  1  0.814877  0.814877  0.248181  1
  Zr  Zr1  1  0.854872  0.854872  0.940717  1
  Zr  Zr2  1  0.862283  0.862283  0.554970  1
  Zr  Zr3  1  0.191920  0.191920  0.748496  1
  Zr  Zr4  1  0.142075  0.142075  0.054415  1
  Zr  Zr5  1  0.134741  0.134741  0.439974  1
  N  N6  1  0.700864  0.700864  0.077762  1
  N  N7  1  0.952118  0.952118  0.384280  1
  N  N8  1  0.294195  0.294195  0.574294  1
  N  N9  1  0.296896  0.296896  0.919432  1
  O  O10  1  0.689620  0.689620  0.419451  1
  O  O11  1  0.753554  0.753554  0.751019  1
  O  O12  1  0.953786  0.953786  0.112698  1
  O  O13  1  0.243440  0.243440  0.256175  1
  O  O14  1  0.043235  0.043235  0.883926  1
  O  O15  1  0.041955  0.041955  0.619016  1
