# generated using pymatgen
data_VPH7N2O5
_symmetry_space_group_name_H-M   'P 1'
_cell_length_a   4.95945300
_cell_length_b   6.90767300
_cell_length_c   8.56210224
_cell_angle_alpha   89.04946141
_cell_angle_beta   90.00000000
_cell_angle_gamma   90.00000000
_symmetry_Int_Tables_number   1
_chemical_formula_structural   VPH7N2O5
_chemical_formula_sum   'V2 P2 H14 N4 O10'
_cell_volume   293.28252788
_cell_formula_units_Z   2
loop_
 _symmetry_equiv_pos_site_id
 _symmetry_equiv_pos_as_xyz
  1  'x, y, z'
loop_
 _atom_site_type_symbol
 _atom_site_label
 _atom_site_symmetry_multiplicity
 _atom_site_fract_x
 _atom_site_fract_y
 _atom_site_fract_z
 _atom_site_occupancy
  V  V0  1  0.338363  0.638863  0.661062  1
  V  V1  1  0.838363  0.361137  0.338938  1
  P  P2  1  0.292664  0.634059  0.276461  1
  P  P3  1  0.792664  0.365941  0.723539  1
  H  H4  1  0.761582  0.942253  0.934678  1
  H  H5  1  0.565343  0.915360  0.481324  1
  H  H6  1  0.723087  0.909129  0.650943  1
  H  H7  1  0.956984  0.821509  0.068488  1
  H  H8  1  0.620760  0.830058  0.093571  1
  H  H9  1  0.802721  0.752439  0.511261  1
  H  H10  1  0.746848  0.697984  0.946199  1
  H  H11  1  0.246848  0.302016  0.053801  1
  H  H12  1  0.302721  0.247561  0.488739  1
  H  H13  1  0.120760  0.169942  0.906429  1
  H  H14  1  0.456984  0.178491  0.931512  1
  H  H15  1  0.223087  0.090871  0.349057  1
  H  H16  1  0.065343  0.084640  0.518676  1
  H  H17  1  0.261582  0.057747  0.065322  1
  N  N18  1  0.647065  0.824374  0.563987  1
  N  N19  1  0.772007  0.823849  0.010283  1
  N  N20  1  0.272007  0.176151  0.989717  1
  N  N21  1  0.147065  0.175626  0.436013  1
  O  O22  1  0.256535  0.832292  0.197310  1
  O  O23  1  0.200538  0.818575  0.753762  1
  O  O24  1  0.171430  0.627243  0.447978  1
  O  O25  1  0.595655  0.582628  0.278079  1
  O  O26  1  0.622624  0.525947  0.805960  1
  O  O27  1  0.122624  0.474053  0.194040  1
  O  O28  1  0.095655  0.417372  0.721921  1
  O  O29  1  0.671430  0.372757  0.552022  1
  O  O30  1  0.700538  0.181425  0.246238  1
  O  O31  1  0.756535  0.167708  0.802690  1
