# generated using pymatgen
data_NaCuP2O7
_symmetry_space_group_name_H-M   'P 1'
_cell_length_a   8.80152882
_cell_length_b   8.80152882
_cell_length_c   8.69110713
_cell_angle_alpha   67.98108578
_cell_angle_beta   67.98108578
_cell_angle_gamma   33.29751168
_symmetry_Int_Tables_number   1
_chemical_formula_structural   NaCuP2O7
_chemical_formula_sum   'Na2 Cu2 P4 O14'
_cell_volume   340.14308461
_cell_formula_units_Z   2
loop_
 _symmetry_equiv_pos_site_id
 _symmetry_equiv_pos_as_xyz
  1  'x, y, z'
loop_
 _atom_site_type_symbol
 _atom_site_label
 _atom_site_symmetry_multiplicity
 _atom_site_fract_x
 _atom_site_fract_y
 _atom_site_fract_z
 _atom_site_occupancy
  Na  Na0  1  0.150195  0.446245  0.571844  1
  Na  Na1  1  0.446245  0.150195  0.071844  1
  Cu  Cu2  1  0.500544  0.503455  0.998758  1
  Cu  Cu3  1  0.503455  0.500544  0.498758  1
  P  P4  1  0.241475  0.940024  0.687494  1
  P  P5  1  0.054454  0.768556  0.810339  1
  P  P6  1  0.940024  0.241475  0.187494  1
  P  P7  1  0.768556  0.054454  0.310339  1
  O  O8  1  0.381678  0.795435  0.848714  1
  O  O9  1  0.257805  0.571569  0.945749  1
  O  O10  1  0.136871  0.196114  0.625219  1
  O  O11  1  0.974945  0.026861  0.748543  1
  O  O12  1  0.801704  0.867600  0.875477  1
  O  O13  1  0.432508  0.743611  0.550865  1
  O  O14  1  0.209913  0.616760  0.652330  1
  O  O15  1  0.795435  0.381678  0.348714  1
  O  O16  1  0.571569  0.257805  0.445749  1
  O  O17  1  0.196114  0.136871  0.125219  1
  O  O18  1  0.026861  0.974945  0.248543  1
  O  O19  1  0.867600  0.801704  0.375477  1
  O  O20  1  0.743611  0.432508  0.050865  1
  O  O21  1  0.616760  0.209913  0.152330  1
