# generated using pymatgen
data_Li2CrSiO4
_symmetry_space_group_name_H-M   'P 1'
_cell_length_a   4.97202301
_cell_length_b   6.58657700
_cell_length_c   5.27469701
_cell_angle_alpha   89.99980656
_cell_angle_beta   89.99171623
_cell_angle_gamma   90.00031790
_symmetry_Int_Tables_number   1
_chemical_formula_structural   Li2CrSiO4
_chemical_formula_sum   'Li4 Cr2 Si2 O8'
_cell_volume   172.73900633
_cell_formula_units_Z   2
loop_
 _symmetry_equiv_pos_site_id
 _symmetry_equiv_pos_as_xyz
  1  'x, y, z'
loop_
 _atom_site_type_symbol
 _atom_site_label
 _atom_site_symmetry_multiplicity
 _atom_site_fract_x
 _atom_site_fract_y
 _atom_site_fract_z
 _atom_site_occupancy
  Li  Li0  1  0.007768  0.248216  0.673964  1
  Li  Li1  1  0.507740  0.251782  0.326011  1
  Li  Li2  1  0.507739  0.748217  0.326014  1
  Li  Li3  1  0.007767  0.751781  0.673964  1
  Cr  Cr4  1  0.494884  0.500007  0.798288  1
  Cr  Cr5  1  0.994581  0.000000  0.201663  1
  Si  Si6  1  0.520395  0.000002  0.833879  1
  Si  Si7  1  0.020451  0.499999  0.166124  1
  O  O8  1  0.428737  0.999999  0.137565  1
  O  O9  1  0.928836  0.499999  0.862450  1
  O  O10  1  0.851242  0.999998  0.815772  1
  O  O11  1  0.351288  0.499999  0.184204  1
  O  O12  1  0.408653  0.207772  0.692034  1
  O  O13  1  0.908636  0.292264  0.308014  1
  O  O14  1  0.908628  0.707728  0.308021  1
  O  O15  1  0.408650  0.792233  0.692032  1
