# generated using pymatgen
data_LiV(TeO4)3
_symmetry_space_group_name_H-M   'P 1'
_cell_length_a   8.45453300
_cell_length_b   4.90711400
_cell_length_c   5.17350828
_cell_angle_alpha   88.97225505
_cell_angle_beta   90.00000000
_cell_angle_gamma   90.00000000
_symmetry_Int_Tables_number   1
_chemical_formula_structural   LiV(TeO4)3
_chemical_formula_sum   'Li1 V1 Te3 O12'
_cell_volume   214.60065714
_cell_formula_units_Z   1
loop_
 _symmetry_equiv_pos_site_id
 _symmetry_equiv_pos_as_xyz
  1  'x, y, z'
loop_
 _atom_site_type_symbol
 _atom_site_label
 _atom_site_symmetry_multiplicity
 _atom_site_fract_x
 _atom_site_fract_y
 _atom_site_fract_z
 _atom_site_occupancy
  Li  Li0  1  0.706325  0.000000  0.500000  1
  V  V1  1  0.908528  0.000000  0.000000  1
  Te  Te2  1  0.593985  0.500000  0.000000  1
  Te  Te3  1  0.081096  0.000000  0.500000  1
  Te  Te4  1  0.395356  0.500000  0.500000  1
  O  O5  1  0.745882  0.245185  0.876278  1
  O  O6  1  0.424285  0.288599  0.818834  1
  O  O7  1  0.063722  0.200696  0.816830  1
  O  O8  1  0.566351  0.715970  0.675480  1
  O  O9  1  0.913509  0.798138  0.686944  1
  O  O10  1  0.242067  0.749607  0.641859  1
  O  O11  1  0.242067  0.250393  0.358141  1
  O  O12  1  0.913509  0.201862  0.313056  1
  O  O13  1  0.566351  0.284030  0.324520  1
  O  O14  1  0.063722  0.799304  0.183170  1
  O  O15  1  0.424285  0.711401  0.181166  1
  O  O16  1  0.745882  0.754815  0.123722  1
