# generated using pymatgen
data_CsLiH4SO5
_symmetry_space_group_name_H-M   'P 1'
_cell_length_a   6.71011758
_cell_length_b   6.71011758
_cell_length_c   4.81221916
_cell_angle_alpha   72.86934946
_cell_angle_beta   72.86934946
_cell_angle_gamma   50.64821933
_symmetry_Int_Tables_number   1
_chemical_formula_structural   CsLiH4SO5
_chemical_formula_sum   'Cs1 Li1 H4 S1 O5'
_cell_volume   158.40112383
_cell_formula_units_Z   1
loop_
 _symmetry_equiv_pos_site_id
 _symmetry_equiv_pos_as_xyz
  1  'x, y, z'
loop_
 _atom_site_type_symbol
 _atom_site_label
 _atom_site_symmetry_multiplicity
 _atom_site_fract_x
 _atom_site_fract_y
 _atom_site_fract_z
 _atom_site_occupancy
  Cs  Cs0  1  0.999628  0.999628  0.000125  1
  Li  Li1  1  0.323098  0.323098  0.629491  1
  H  H2  1  0.100289  0.370293  0.233323  1
  H  H3  1  0.370293  0.100289  0.233323  1
  H  H4  1  0.541619  0.541619  0.555674  1
  H  H5  1  0.542034  0.542034  0.219384  1
  S  S6  1  0.740845  0.740845  0.725957  1
  O  O7  1  0.490839  0.490839  0.429452  1
  O  O8  1  0.991187  0.561529  0.871450  1
  O  O9  1  0.561529  0.991187  0.871450  1
  O  O10  1  0.224235  0.224235  0.369261  1
  O  O11  1  0.605385  0.605385  0.837412  1
