# generated using pymatgen
data_Sr2CaI6
_symmetry_space_group_name_H-M   'P 1'
_cell_length_a   13.26638793
_cell_length_b   13.26638793
_cell_length_c   8.77113873
_cell_angle_alpha   79.11148003
_cell_angle_beta   79.11148003
_cell_angle_gamma   33.52340436
_symmetry_Int_Tables_number   1
_chemical_formula_structural   Sr2CaI6
_chemical_formula_sum   'Sr4 Ca2 I12'
_cell_volume   835.79278230
_cell_formula_units_Z   2
loop_
 _symmetry_equiv_pos_site_id
 _symmetry_equiv_pos_as_xyz
  1  'x, y, z'
loop_
 _atom_site_type_symbol
 _atom_site_label
 _atom_site_symmetry_multiplicity
 _atom_site_fract_x
 _atom_site_fract_y
 _atom_site_fract_z
 _atom_site_occupancy
  Sr  Sr0  1  0.054280  0.611927  0.639758  1
  Sr  Sr1  1  0.611927  0.054280  0.139758  1
  Sr  Sr2  1  0.388073  0.945720  0.860242  1
  Sr  Sr3  1  0.945720  0.388073  0.360242  1
  Ca  Ca4  1  0.669545  0.330455  0.750000  1
  Ca  Ca5  1  0.330455  0.669545  0.250000  1
  I  I6  1  0.444554  0.403156  0.532741  1
  I  I7  1  0.403156  0.444554  0.032741  1
  I  I8  1  0.879704  0.938441  0.832033  1
  I  I9  1  0.938441  0.879704  0.332033  1
  I  I10  1  0.277428  0.270275  0.907749  1
  I  I11  1  0.270275  0.277428  0.407749  1
  I  I12  1  0.729725  0.722572  0.592251  1
  I  I13  1  0.722572  0.729725  0.092251  1
  I  I14  1  0.061559  0.120296  0.667967  1
  I  I15  1  0.120296  0.061559  0.167967  1
  I  I16  1  0.596844  0.555446  0.967259  1
  I  I17  1  0.555446  0.596844  0.467259  1
