# generated using pymatgen
data_VCr(P2O7)2
_symmetry_space_group_name_H-M   'P 1'
_cell_length_a   4.86570573
_cell_length_b   16.11274951
_cell_length_c   6.98785999
_cell_angle_alpha   90.53009658
_cell_angle_beta   105.88641430
_cell_angle_gamma   89.25515481
_symmetry_Int_Tables_number   1
_chemical_formula_structural   VCr(P2O7)2
_chemical_formula_sum   'V2 Cr2 P8 O28'
_cell_volume   526.86939624
_cell_formula_units_Z   2
loop_
 _symmetry_equiv_pos_site_id
 _symmetry_equiv_pos_as_xyz
  1  'x, y, z'
loop_
 _atom_site_type_symbol
 _atom_site_label
 _atom_site_symmetry_multiplicity
 _atom_site_fract_x
 _atom_site_fract_y
 _atom_site_fract_z
 _atom_site_occupancy
  V  V0  1  0.212196  0.752725  0.725765  1
  V  V1  1  0.211825  0.252738  0.726024  1
  Cr  Cr2  1  0.784145  0.003171  0.269945  1
  Cr  Cr3  1  0.784227  0.503100  0.270314  1
  P  P4  1  0.390397  0.091207  0.509422  1
  P  P5  1  0.390163  0.591199  0.509170  1
  P  P6  1  0.240458  0.386799  0.104412  1
  P  P7  1  0.240313  0.886747  0.104392  1
  P  P8  1  0.764157  0.135617  0.896640  1
  P  P9  1  0.764286  0.635404  0.896036  1
  P  P10  1  0.609202  0.345826  0.488515  1
  P  P11  1  0.609334  0.845899  0.488507  1
  O  O12  1  0.018742  0.168399  0.829621  1
  O  O13  1  0.018035  0.668154  0.827913  1
  O  O14  1  0.168277  0.330053  0.914527  1
  O  O15  1  0.168401  0.829780  0.914815  1
  O  O16  1  0.153723  0.029084  0.471026  1
  O  O17  1  0.153620  0.529042  0.470938  1
  O  O18  1  0.272209  0.181150  0.532238  1
  O  O19  1  0.271779  0.681146  0.531783  1
  O  O20  1  0.412603  0.336755  0.627564  1
  O  O21  1  0.412638  0.836764  0.627567  1
  O  O22  1  0.556927  0.210170  0.900818  1
  O  O23  1  0.556890  0.709921  0.900253  1
  O  O24  1  0.589795  0.071970  0.732211  1
  O  O25  1  0.589211  0.571839  0.731937  1
  O  O26  1  0.426990  0.320962  0.268141  1
  O  O27  1  0.426993  0.820986  0.268191  1
  O  O28  1  0.422647  0.459626  0.083214  1
  O  O29  1  0.422171  0.959634  0.083084  1
  O  O30  1  0.575996  0.094956  0.368727  1
  O  O31  1  0.575992  0.594931  0.368605  1
  O  O32  1  0.713045  0.433410  0.488178  1
  O  O33  1  0.713012  0.933504  0.488130  1
  O  O34  1  0.855590  0.281587  0.544181  1
  O  O35  1  0.855686  0.781666  0.544101  1
  O  O36  1  0.865290  0.088861  0.087221  1
  O  O37  1  0.865546  0.588557  0.086518  1
  O  O38  1  0.968706  0.407868  0.159346  1
  O  O39  1  0.968546  0.907872  0.159266  1
