# generated using pymatgen
data_Na3VO4
_symmetry_space_group_name_H-M   'P 1'
_cell_length_a   5.60286400
_cell_length_b   6.15170900
_cell_length_c   7.18361100
_cell_angle_alpha   90.00000000
_cell_angle_beta   90.00000000
_cell_angle_gamma   90.00000000
_symmetry_Int_Tables_number   1
_chemical_formula_structural   Na3VO4
_chemical_formula_sum   'Na6 V2 O8'
_cell_volume   247.59887728
_cell_formula_units_Z   2
loop_
 _symmetry_equiv_pos_site_id
 _symmetry_equiv_pos_as_xyz
  1  'x, y, z'
loop_
 _atom_site_type_symbol
 _atom_site_label
 _atom_site_symmetry_multiplicity
 _atom_site_fract_x
 _atom_site_fract_y
 _atom_site_fract_z
 _atom_site_occupancy
  Na  Na0  1  0.487466  0.658497  0.000000  1
  Na  Na1  1  0.988867  0.826412  0.246070  1
  Na  Na2  1  0.488867  0.173588  0.253930  1
  Na  Na3  1  0.987466  0.341503  0.500000  1
  Na  Na4  1  0.488867  0.173588  0.746070  1
  Na  Na5  1  0.988867  0.826412  0.753930  1
  V  V6  1  0.001066  0.326736  0.000000  1
  V  V7  1  0.501066  0.673264  0.500000  1
  O  O8  1  0.903928  0.597612  0.000000  1
  O  O9  1  0.311572  0.322286  0.000000  1
  O  O10  1  0.901483  0.192392  0.201383  1
  O  O11  1  0.401483  0.807608  0.298617  1
  O  O12  1  0.811572  0.677714  0.500000  1
  O  O13  1  0.403928  0.402388  0.500000  1
  O  O14  1  0.401483  0.807608  0.701383  1
  O  O15  1  0.901483  0.192392  0.798617  1
