# generated using pymatgen
data_Fe4O3F5
_symmetry_space_group_name_H-M   'P 1'
_cell_length_a   5.71100792
_cell_length_b   5.71100792
_cell_length_c   5.71100792
_cell_angle_alpha   69.21235584
_cell_angle_beta   103.64655253
_cell_angle_gamma   65.84774015
_symmetry_Int_Tables_number   1
_chemical_formula_structural   Fe4O3F5
_chemical_formula_sum   'Fe4 O3 F5'
_cell_volume   142.15592354
_cell_formula_units_Z   1
loop_
 _symmetry_equiv_pos_site_id
 _symmetry_equiv_pos_as_xyz
  1  'x, y, z'
loop_
 _atom_site_type_symbol
 _atom_site_label
 _atom_site_symmetry_multiplicity
 _atom_site_fract_x
 _atom_site_fract_y
 _atom_site_fract_z
 _atom_site_occupancy
  Fe  Fe0  1  0.759937  0.729572  0.510491  1
  Fe  Fe1  1  0.240063  0.249446  0.510491  1
  Fe  Fe2  1  0.500000  0.524967  0.975033  1
  Fe  Fe3  1  0.000000  0.991750  0.008250  1
  O  O4  1  0.500000  0.822605  0.677395  1
  O  O5  1  0.000000  0.291049  0.708951  1
  O  O6  1  0.000000  0.695327  0.304673  1
  F  F7  1  0.558261  0.238135  0.802850  1
  F  F8  1  0.040985  0.755411  0.802850  1
  F  F9  1  0.500000  0.208190  0.291810  1
  F  F10  1  0.959015  0.238135  0.203604  1
  F  F11  1  0.441739  0.755411  0.203604  1
