# generated using pymatgen
data_Li4CoO4
_symmetry_space_group_name_H-M   'P 1'
_cell_length_a   4.80287200
_cell_length_b   8.82908801
_cell_length_c   8.80159287
_cell_angle_alpha   89.99978861
_cell_angle_beta   90.00092356
_cell_angle_gamma   89.99979363
_symmetry_Int_Tables_number   1
_chemical_formula_structural   Li4CoO4
_chemical_formula_sum   'Li16 Co4 O16'
_cell_volume   373.23136555
_cell_formula_units_Z   4
loop_
 _symmetry_equiv_pos_site_id
 _symmetry_equiv_pos_as_xyz
  1  'x, y, z'
loop_
 _atom_site_type_symbol
 _atom_site_label
 _atom_site_symmetry_multiplicity
 _atom_site_fract_x
 _atom_site_fract_y
 _atom_site_fract_z
 _atom_site_occupancy
  Li  Li0  1  0.750010  0.500011  0.448037  1
  Li  Li1  1  0.750010  0.000011  0.948041  1
  Li  Li2  1  0.750003  0.500011  0.051964  1
  Li  Li3  1  0.750005  0.000011  0.551960  1
  Li  Li4  1  0.250004  0.301773  0.749999  1
  Li  Li5  1  0.250003  0.801769  0.249999  1
  Li  Li6  1  0.250000  0.698248  0.750001  1
  Li  Li7  1  0.250002  0.198255  0.250001  1
  Li  Li8  1  0.184580  0.250010  0.999999  1
  Li  Li9  1  0.184577  0.750005  0.499999  1
  Li  Li10  1  0.684682  0.250011  0.999998  1
  Li  Li11  1  0.684683  0.750010  0.500010  1
  Li  Li12  1  0.315433  0.750006  0.999999  1
  Li  Li13  1  0.315433  0.250010  0.500000  1
  Li  Li14  1  0.815326  0.750008  0.999987  1
  Li  Li15  1  0.815326  0.250009  0.500000  1
  Co  Co16  1  0.250005  0.000010  0.749999  1
  Co  Co17  1  0.750001  0.000010  0.249999  1
  Co  Co18  1  0.250005  0.500011  0.249999  1
  Co  Co19  1  0.750004  0.500010  0.750001  1
  O  O20  1  0.945267  0.618504  0.618959  1
  O  O21  1  0.945270  0.118502  0.118959  1
  O  O22  1  0.445770  0.368816  0.131925  1
  O  O23  1  0.445779  0.868820  0.631926  1
  O  O24  1  0.445772  0.631205  0.368079  1
  O  O25  1  0.445780  0.131204  0.868079  1
  O  O26  1  0.945267  0.381512  0.881046  1
  O  O27  1  0.945268  0.881514  0.381045  1
  O  O28  1  0.054234  0.631205  0.131920  1
  O  O29  1  0.054226  0.131203  0.631922  1
  O  O30  1  0.554741  0.381513  0.618953  1
  O  O31  1  0.554739  0.881513  0.118954  1
  O  O32  1  0.554739  0.618505  0.881043  1
  O  O33  1  0.554734  0.118503  0.381042  1
  O  O34  1  0.054240  0.368819  0.368074  1
  O  O35  1  0.054227  0.868820  0.868074  1
