# generated using pymatgen
data_SrTaNO2
_symmetry_space_group_name_H-M   'P 1'
_cell_length_a   5.73254073
_cell_length_b   5.73254073
_cell_length_c   8.19214288
_cell_angle_alpha   89.84763255
_cell_angle_beta   89.84763255
_cell_angle_gamma   88.93542023
_symmetry_Int_Tables_number   1
_chemical_formula_structural   SrTaNO2
_chemical_formula_sum   'Sr4 Ta4 N4 O8'
_cell_volume   269.16205208
_cell_formula_units_Z   4
loop_
 _symmetry_equiv_pos_site_id
 _symmetry_equiv_pos_as_xyz
  1  'x, y, z'
loop_
 _atom_site_type_symbol
 _atom_site_label
 _atom_site_symmetry_multiplicity
 _atom_site_fract_x
 _atom_site_fract_y
 _atom_site_fract_z
 _atom_site_occupancy
  Sr  Sr0  1  0.995640  0.994460  0.750098  1
  Sr  Sr1  1  0.497171  0.491678  0.750082  1
  Sr  Sr2  1  0.508322  0.502829  0.249918  1
  Sr  Sr3  1  0.005540  0.004360  0.249902  1
  Ta  Ta4  1  0.009260  0.508249  0.507945  1
  Ta  Ta5  1  0.993814  0.489675  0.990757  1
  Ta  Ta6  1  0.510325  0.006186  0.009243  1
  Ta  Ta7  1  0.491751  0.990740  0.492055  1
  N  N8  1  0.771887  0.228113  0.000000  1
  N  N9  1  0.521159  0.976259  0.250081  1
  N  N10  1  0.023741  0.478841  0.749919  1
  N  N11  1  0.227497  0.772503  0.500000  1
  O  O12  1  0.775742  0.224258  0.500000  1
  O  O13  1  0.476292  0.028313  0.749609  1
  O  O14  1  0.971687  0.523708  0.250391  1
  O  O15  1  0.723155  0.726204  0.975825  1
  O  O16  1  0.275290  0.274947  0.475963  1
  O  O17  1  0.725053  0.724710  0.524037  1
  O  O18  1  0.273796  0.276845  0.024175  1
  O  O19  1  0.222880  0.777120  0.000000  1
