# generated using pymatgen
data_NbCrO4
_symmetry_space_group_name_H-M   'P 1'
_cell_length_a   5.63803164
_cell_length_b   5.63803026
_cell_length_c   5.63802833
_cell_angle_alpha   72.89768606
_cell_angle_beta   107.10399485
_cell_angle_gamma   65.68118648
_symmetry_Int_Tables_number   1
_chemical_formula_structural   NbCrO4
_chemical_formula_sum   'Nb2 Cr2 O8'
_cell_volume   137.21518408
_cell_formula_units_Z   2
loop_
 _symmetry_equiv_pos_site_id
 _symmetry_equiv_pos_as_xyz
  1  'x, y, z'
loop_
 _atom_site_type_symbol
 _atom_site_label
 _atom_site_symmetry_multiplicity
 _atom_site_fract_x
 _atom_site_fract_y
 _atom_site_fract_z
 _atom_site_occupancy
  Nb  Nb0  1  0.262241  0.237759  0.500000  1
  Nb  Nb1  1  0.012259  0.987741  0.000000  1
  Cr  Cr2  1  0.751883  0.748118  0.499999  1
  Cr  Cr3  1  0.501870  0.498125  0.999998  1
  O  O4  1  0.554084  0.250739  0.804822  1
  O  O5  1  0.045165  0.756327  0.801491  1
  O  O6  1  0.999263  0.305570  0.695169  1
  O  O7  1  0.493675  0.807816  0.698511  1
  O  O8  1  0.999263  0.695906  0.304832  1
  O  O9  1  0.493674  0.204836  0.301489  1
  O  O10  1  0.442183  0.756326  0.198510  1
  O  O11  1  0.944439  0.250738  0.195179  1
