# generated using pymatgen
data_KPWCO7
_symmetry_space_group_name_H-M   'P 1'
_cell_length_a   6.53953000
_cell_length_b   5.34160100
_cell_length_c   10.57929027
_cell_angle_alpha   87.66085407
_cell_angle_beta   90.00000000
_cell_angle_gamma   90.00000000
_symmetry_Int_Tables_number   1
_chemical_formula_structural   KPWCO7
_chemical_formula_sum   'K2 P2 W2 C2 O14'
_cell_volume   369.24318156
_cell_formula_units_Z   2
loop_
 _symmetry_equiv_pos_site_id
 _symmetry_equiv_pos_as_xyz
  1  'x, y, z'
loop_
 _atom_site_type_symbol
 _atom_site_label
 _atom_site_symmetry_multiplicity
 _atom_site_fract_x
 _atom_site_fract_y
 _atom_site_fract_z
 _atom_site_occupancy
  K  K0  1  0.606949  0.759855  0.790979  1
  K  K1  1  0.106949  0.240145  0.209021  1
  P  P2  1  0.725215  0.268145  0.564080  1
  P  P3  1  0.225215  0.731855  0.435920  1
  W  W4  1  0.223249  0.226541  0.651357  1
  W  W5  1  0.723249  0.773459  0.348643  1
  C  C6  1  0.262672  0.288685  0.887021  1
  C  C7  1  0.762672  0.711315  0.112979  1
  O  O8  1  0.790277  0.666645  0.001126  1
  O  O9  1  0.245632  0.065120  0.837684  1
  O  O10  1  0.250163  0.474103  0.791843  1
  O  O11  1  0.911909  0.215125  0.652752  1
  O  O12  1  0.538820  0.205329  0.651161  1
  O  O13  1  0.229874  0.907061  0.547517  1
  O  O14  1  0.717389  0.545464  0.519861  1
  O  O15  1  0.217389  0.454536  0.480139  1
  O  O16  1  0.729874  0.092939  0.452483  1
  O  O17  1  0.038820  0.794671  0.348839  1
  O  O18  1  0.411909  0.784875  0.347248  1
  O  O19  1  0.750163  0.525897  0.208157  1
  O  O20  1  0.745632  0.934880  0.162316  1
  O  O21  1  0.290277  0.333355  0.998874  1
