# generated using pymatgen
data_TiMnO4
_symmetry_space_group_name_H-M   'P 1'
_cell_length_a   3.78243660
_cell_length_b   3.78244205
_cell_length_c   9.54131888
_cell_angle_alpha   90.00007058
_cell_angle_beta   90.00003338
_cell_angle_gamma   89.99997849
_symmetry_Int_Tables_number   1
_chemical_formula_structural   TiMnO4
_chemical_formula_sum   'Ti2 Mn2 O8'
_cell_volume   136.50619190
_cell_formula_units_Z   2
loop_
 _symmetry_equiv_pos_site_id
 _symmetry_equiv_pos_as_xyz
  1  'x, y, z'
loop_
 _atom_site_type_symbol
 _atom_site_label
 _atom_site_symmetry_multiplicity
 _atom_site_fract_x
 _atom_site_fract_y
 _atom_site_fract_z
 _atom_site_occupancy
  Ti  Ti0  1  0.500000  0.000000  0.750005  1
  Ti  Ti1  1  0.999999  0.500002  0.249993  1
  Mn  Mn2  1  0.500000  0.499994  0.500001  1
  Mn  Mn3  1  0.000005  0.000000  0.000005  1
  O  O4  1  0.499998  0.999999  0.959329  1
  O  O5  1  0.000004  0.500000  0.459312  1
  O  O6  1  0.500000  0.999999  0.540688  1
  O  O7  1  0.999999  0.500003  0.040669  1
  O  O8  1  0.999999  0.000001  0.799024  1
  O  O9  1  0.499999  0.500002  0.298991  1
  O  O10  1  0.000000  0.000000  0.200976  1
  O  O11  1  0.499998  0.500000  0.701007  1
