# generated using pymatgen
data_Li4MnSb2WO12
_symmetry_space_group_name_H-M   'P 1'
_cell_length_a   5.43885176
_cell_length_b   9.06247323
_cell_length_c   9.07942789
_cell_angle_alpha   68.86703874
_cell_angle_beta   86.26285084
_cell_angle_gamma   86.31422228
_symmetry_Int_Tables_number   1
_chemical_formula_structural   Li4MnSb2WO12
_chemical_formula_sum   'Li8 Mn2 Sb4 W2 O24'
_cell_volume   416.13489708
_cell_formula_units_Z   2
loop_
 _symmetry_equiv_pos_site_id
 _symmetry_equiv_pos_as_xyz
  1  'x, y, z'
loop_
 _atom_site_type_symbol
 _atom_site_label
 _atom_site_symmetry_multiplicity
 _atom_site_fract_x
 _atom_site_fract_y
 _atom_site_fract_z
 _atom_site_occupancy
  Li  Li0  1  0.560265  0.650032  0.651695  1
  Li  Li1  1  0.560186  0.150017  0.151743  1
  Li  Li2  1  0.087792  0.135806  0.636219  1
  Li  Li3  1  0.087930  0.635756  0.136225  1
  Li  Li4  1  0.437460  0.855136  0.853901  1
  Li  Li5  1  0.437124  0.354860  0.353955  1
  Li  Li6  1  0.100295  0.403391  0.904685  1
  Li  Li7  1  0.100065  0.903341  0.404682  1
  Mn  Mn8  1  0.508399  0.500564  0.999119  1
  Mn  Mn9  1  0.508363  0.000433  0.498974  1
  Sb  Sb10  1  0.995770  0.753731  0.751131  1
  Sb  Sb11  1  0.995666  0.254004  0.250910  1
  Sb  Sb12  1  0.510905  0.249777  0.750103  1
  Sb  Sb13  1  0.510897  0.749723  0.250133  1
  W  W14  1  0.000075  0.502204  0.503232  1
  W  W15  1  0.000007  0.002356  0.003186  1
  O  O16  1  0.802198  0.868977  0.560123  1
  O  O17  1  0.802242  0.369033  0.059997  1
  O  O18  1  0.004692  0.942649  0.816428  1
  O  O19  1  0.004413  0.442781  0.316386  1
  O  O20  1  0.180737  0.185737  0.874551  1
  O  O21  1  0.180817  0.685800  0.374518  1
  O  O22  1  0.306109  0.818160  0.618203  1
  O  O23  1  0.306220  0.318148  0.118143  1
  O  O24  1  0.306120  0.373694  0.560381  1
  O  O25  1  0.306127  0.873586  0.060355  1
  O  O26  1  0.481550  0.062576  0.686900  1
  O  O27  1  0.481469  0.562574  0.186911  1
  O  O28  1  0.484745  0.438782  0.811475  1
  O  O29  1  0.484674  0.938761  0.311476  1
  O  O30  1  0.687654  0.118049  0.945744  1
  O  O31  1  0.687519  0.618127  0.445700  1
  O  O32  1  0.676206  0.685176  0.867772  1
  O  O33  1  0.676203  0.185099  0.367758  1
  O  O34  1  0.827180  0.308618  0.622832  1
  O  O35  1  0.827140  0.808591  0.122853  1
  O  O36  1  0.993137  0.558797  0.686948  1
  O  O37  1  0.993300  0.058758  0.186902  1
  O  O38  1  0.191441  0.623063  0.934656  1
  O  O39  1  0.191697  0.124523  0.434295  1
