# generated using pymatgen
data_Li2MnP2O7
_symmetry_space_group_name_H-M   'P 1'
_cell_length_a   7.25341671
_cell_length_b   8.54738719
_cell_length_c   10.21102850
_cell_angle_alpha   89.99033545
_cell_angle_beta   70.11675517
_cell_angle_gamma   89.97576214
_symmetry_Int_Tables_number   1
_chemical_formula_structural   Li2MnP2O7
_chemical_formula_sum   'Li8 Mn4 P8 O28'
_cell_volume   595.32258787
_cell_formula_units_Z   4
loop_
 _symmetry_equiv_pos_site_id
 _symmetry_equiv_pos_as_xyz
  1  'x, y, z'
loop_
 _atom_site_type_symbol
 _atom_site_label
 _atom_site_symmetry_multiplicity
 _atom_site_fract_x
 _atom_site_fract_y
 _atom_site_fract_z
 _atom_site_occupancy
  Li  Li0  1  0.350124  0.147997  0.092669  1
  Li  Li1  1  0.350125  0.148000  0.592687  1
  Li  Li2  1  0.649885  0.648005  0.407294  1
  Li  Li3  1  0.649770  0.648064  0.907203  1
  Li  Li4  1  0.089085  0.321692  0.323909  1
  Li  Li5  1  0.089122  0.321763  0.823747  1
  Li  Li6  1  0.910900  0.821584  0.176163  1
  Li  Li7  1  0.910686  0.821755  0.676223  1
  Mn  Mn8  1  0.277279  0.508186  0.594280  1
  Mn  Mn9  1  0.723151  0.008362  0.905920  1
  Mn  Mn10  1  0.277342  0.508087  0.094323  1
  Mn  Mn11  1  0.722790  0.008093  0.405701  1
  P  P12  1  0.479004  0.813954  0.194247  1
  P  P13  1  0.479028  0.813982  0.694184  1
  P  P14  1  0.520996  0.313977  0.305777  1
  P  P15  1  0.520966  0.314004  0.805787  1
  P  P16  1  0.917688  0.205452  0.109542  1
  P  P17  1  0.917615  0.205467  0.609489  1
  P  P18  1  0.082258  0.705424  0.390580  1
  P  P19  1  0.082412  0.705551  0.890556  1
  O  O20  1  0.095987  0.686764  0.036398  1
  O  O21  1  0.095845  0.686703  0.536400  1
  O  O22  1  0.903999  0.186783  0.463657  1
  O  O23  1  0.903851  0.186967  0.963787  1
  O  O24  1  0.105568  0.291829  0.106494  1
  O  O25  1  0.105448  0.291884  0.606416  1
  O  O26  1  0.894518  0.791978  0.393526  1
  O  O27  1  0.894543  0.792003  0.893531  1
  O  O28  1  0.502854  0.963547  0.107414  1
  O  O29  1  0.502879  0.963581  0.607367  1
  O  O30  1  0.497049  0.463548  0.392632  1
  O  O31  1  0.496984  0.463572  0.892670  1
  O  O32  1  0.496513  0.666871  0.105496  1
  O  O33  1  0.496473  0.666890  0.605468  1
  O  O34  1  0.503627  0.166849  0.394424  1
  O  O35  1  0.503700  0.166878  0.894452  1
  O  O36  1  0.383103  0.308651  0.220386  1
  O  O37  1  0.382926  0.308580  0.720604  1
  O  O38  1  0.617040  0.808589  0.279443  1
  O  O39  1  0.617092  0.808565  0.779398  1
  O  O40  1  0.100552  0.550627  0.312135  1
  O  O41  1  0.100909  0.550701  0.812198  1
  O  O42  1  0.899150  0.050275  0.187535  1
  O  O43  1  0.899249  0.050661  0.687937  1
  O  O44  1  0.255340  0.823350  0.302969  1
  O  O45  1  0.255443  0.823514  0.802936  1
  O  O46  1  0.744639  0.323618  0.197028  1
  O  O47  1  0.744498  0.323510  0.697022  1
