# generated using pymatgen
data_LiMn2F6
_symmetry_space_group_name_H-M   'P 1'
_cell_length_a   5.30590997
_cell_length_b   5.30590997
_cell_length_c   4.51251955
_cell_angle_alpha   89.23469905
_cell_angle_beta   89.23469905
_cell_angle_gamma   116.09796724
_symmetry_Int_Tables_number   1
_chemical_formula_structural   LiMn2F6
_chemical_formula_sum   'Li1 Mn2 F6'
_cell_volume   114.05063179
_cell_formula_units_Z   1
loop_
 _symmetry_equiv_pos_site_id
 _symmetry_equiv_pos_as_xyz
  1  'x, y, z'
loop_
 _atom_site_type_symbol
 _atom_site_label
 _atom_site_symmetry_multiplicity
 _atom_site_fract_x
 _atom_site_fract_y
 _atom_site_fract_z
 _atom_site_occupancy
  Li  Li0  1  0.004906  0.995094  0.000000  1
  Mn  Mn1  1  0.321198  0.678802  0.500000  1
  Mn  Mn2  1  0.668369  0.331631  0.500000  1
  F  F3  1  0.673081  0.032576  0.269520  1
  F  F4  1  0.335772  0.007756  0.748335  1
  F  F5  1  0.992244  0.664228  0.251665  1
  F  F6  1  0.650622  0.623482  0.723577  1
  F  F7  1  0.967424  0.326919  0.730480  1
  F  F8  1  0.376518  0.349378  0.276423  1
