# generated using pymatgen
data_Zr2N2O
_symmetry_space_group_name_H-M   'P 1'
_cell_length_a   6.74049768
_cell_length_b   6.74049768
_cell_length_c   12.15906667
_cell_angle_alpha   63.33206898
_cell_angle_beta   63.33206898
_cell_angle_gamma   30.15173738
_symmetry_Int_Tables_number   1
_chemical_formula_structural   Zr2N2O
_chemical_formula_sum   'Zr8 N8 O4'
_cell_volume   245.68751983
_cell_formula_units_Z   4
loop_
 _symmetry_equiv_pos_site_id
 _symmetry_equiv_pos_as_xyz
  1  'x, y, z'
loop_
 _atom_site_type_symbol
 _atom_site_label
 _atom_site_symmetry_multiplicity
 _atom_site_fract_x
 _atom_site_fract_y
 _atom_site_fract_z
 _atom_site_occupancy
  Zr  Zr0  1  0.368590  0.368590  0.650498  1
  Zr  Zr1  1  0.881019  0.881019  0.392842  1
  Zr  Zr2  1  0.631257  0.631257  0.850205  1
  Zr  Zr3  1  0.876601  0.876601  0.900316  1
  Zr  Zr4  1  0.124949  0.124949  0.596570  1
  Zr  Zr5  1  0.123299  0.123299  0.112090  1
  Zr  Zr6  1  0.377434  0.377434  0.137993  1
  Zr  Zr7  1  0.623326  0.623326  0.356089  1
  N  N8  1  0.684652  0.684652  0.491162  1
  N  N9  1  0.182630  0.182630  0.244539  1
  N  N10  1  0.317867  0.317867  0.003544  1
  N  N11  1  0.822092  0.822092  0.761024  1
  N  N12  1  0.994672  0.994672  0.500143  1
  N  N13  1  0.174929  0.174929  0.740496  1
  N  N14  1  0.497203  0.497203  0.253164  1
  N  N15  1  0.996764  0.996764  0.004346  1
  O  O16  1  0.824690  0.824690  0.254184  1
  O  O17  1  0.500101  0.500101  0.747759  1
  O  O18  1  0.674613  0.674613  0.999016  1
  O  O19  1  0.322547  0.322547  0.504022  1
