# generated using pymatgen
data_FeCo3(PO4)4
_symmetry_space_group_name_H-M   'P 1'
_cell_length_a   5.90717300
_cell_length_b   4.83882700
_cell_length_c   9.82476135
_cell_angle_alpha   89.56026832
_cell_angle_beta   90.00000000
_cell_angle_gamma   90.00000000
_symmetry_Int_Tables_number   1
_chemical_formula_structural   FeCo3(PO4)4
_chemical_formula_sum   'Fe1 Co3 P4 O16'
_cell_volume   280.82062688
_cell_formula_units_Z   1
loop_
 _symmetry_equiv_pos_site_id
 _symmetry_equiv_pos_as_xyz
  1  'x, y, z'
loop_
 _atom_site_type_symbol
 _atom_site_label
 _atom_site_symmetry_multiplicity
 _atom_site_fract_x
 _atom_site_fract_y
 _atom_site_fract_z
 _atom_site_occupancy
  Fe  Fe0  1  0.000000  0.043448  0.723104  1
  Co  Co1  1  0.500000  0.969749  0.270172  1
  Co  Co2  1  0.500000  0.570739  0.785406  1
  Co  Co3  1  0.000000  0.468097  0.229804  1
  P  P4  1  0.000000  0.904335  0.400249  1
  P  P5  1  0.000000  0.580530  0.906472  1
  P  P6  1  0.500000  0.410774  0.096027  1
  P  P7  1  0.500000  0.090664  0.599810  1
  O  O8  1  0.000000  0.847385  0.553038  1
  O  O9  1  0.204187  0.759377  0.328459  1
  O  O10  1  0.795813  0.759377  0.328459  1
  O  O11  1  0.500000  0.773778  0.620158  1
  O  O12  1  0.500000  0.725726  0.118852  1
  O  O13  1  0.202342  0.733257  0.830203  1
  O  O14  1  0.797658  0.733257  0.830203  1
  O  O15  1  0.000000  0.654491  0.057857  1
  O  O16  1  0.500000  0.346974  0.942623  1
  O  O17  1  0.703874  0.260437  0.167184  1
  O  O18  1  0.296126  0.260437  0.167184  1
  O  O19  1  0.000000  0.271170  0.884849  1
  O  O20  1  0.000000  0.221441  0.376210  1
  O  O21  1  0.705474  0.236277  0.669768  1
  O  O22  1  0.294526  0.236277  0.669768  1
  O  O23  1  0.500000  0.142002  0.444142  1
