# generated using pymatgen
data_Li2CrO3
_symmetry_space_group_name_H-M   'P 1'
_cell_length_a   5.60645400
_cell_length_b   5.56004205
_cell_length_c   4.99164800
_cell_angle_alpha   89.99984106
_cell_angle_beta   89.99968475
_cell_angle_gamma   59.72364885
_symmetry_Int_Tables_number   1
_chemical_formula_structural   Li2CrO3
_chemical_formula_sum   'Li4 Cr2 O6'
_cell_volume   134.37695515
_cell_formula_units_Z   2
loop_
 _symmetry_equiv_pos_site_id
 _symmetry_equiv_pos_as_xyz
  1  'x, y, z'
loop_
 _atom_site_type_symbol
 _atom_site_label
 _atom_site_symmetry_multiplicity
 _atom_site_fract_x
 _atom_site_fract_y
 _atom_site_fract_z
 _atom_site_occupancy
  Li  Li0  1  0.834682  0.658876  0.522168  1
  Li  Li1  1  0.506436  0.658868  0.022178  1
  Li  Li2  1  0.493555  0.341134  0.522169  1
  Li  Li3  1  0.165310  0.341126  0.022176  1
  Cr  Cr4  1  0.822692  0.000011  0.017833  1
  Cr  Cr5  1  0.177358  0.999989  0.517838  1
  O  O6  1  0.828842  0.694220  0.921342  1
  O  O7  1  0.476901  0.694251  0.421343  1
  O  O8  1  0.523066  0.305770  0.921334  1
  O  O9  1  0.171157  0.305760  0.421347  1
  O  O10  1  0.862681  0.999994  0.392132  1
  O  O11  1  0.137320  0.000002  0.892136  1
