# generated using pymatgen
data_Li2P2WO8
_symmetry_space_group_name_H-M   'P 1'
_cell_length_a   4.86432500
_cell_length_b   5.97859100
_cell_length_c   10.46845544
_cell_angle_alpha   89.96085031
_cell_angle_beta   90.00000000
_cell_angle_gamma   90.00000000
_symmetry_Int_Tables_number   1
_chemical_formula_structural   Li2P2WO8
_chemical_formula_sum   'Li4 P4 W2 O16'
_cell_volume   304.44155764
_cell_formula_units_Z   2
loop_
 _symmetry_equiv_pos_site_id
 _symmetry_equiv_pos_as_xyz
  1  'x, y, z'
loop_
 _atom_site_type_symbol
 _atom_site_label
 _atom_site_symmetry_multiplicity
 _atom_site_fract_x
 _atom_site_fract_y
 _atom_site_fract_z
 _atom_site_occupancy
  Li  Li0  1  0.739101  0.565639  0.508158  1
  Li  Li1  1  0.260899  0.565639  0.008158  1
  Li  Li2  1  0.272720  0.751473  0.719442  1
  Li  Li3  1  0.727280  0.751473  0.219442  1
  P  P4  1  0.340850  0.245569  0.596349  1
  P  P5  1  0.659150  0.245569  0.096349  1
  P  P6  1  0.805851  0.742554  0.906057  1
  P  P7  1  0.194149  0.742554  0.406057  1
  W  W8  1  0.773112  0.243265  0.776958  1
  W  W9  1  0.226888  0.243265  0.276958  1
  O  O10  1  0.471536  0.051426  0.676323  1
  O  O11  1  0.528464  0.051426  0.176323  1
  O  O12  1  0.571939  0.240338  0.955484  1
  O  O13  1  0.428061  0.240338  0.455484  1
  O  O14  1  0.027261  0.257946  0.610145  1
  O  O15  1  0.972739  0.257946  0.110145  1
  O  O16  1  0.502986  0.447748  0.660497  1
  O  O17  1  0.497014  0.447748  0.160497  1
  O  O18  1  0.951896  0.535754  0.831747  1
  O  O19  1  0.048104  0.535754  0.331747  1
  O  O20  1  0.497210  0.729877  0.890239  1
  O  O21  1  0.502790  0.729877  0.390239  1
  O  O22  1  0.080054  0.741012  0.541255  1
  O  O23  1  0.919946  0.741012  0.041255  1
  O  O24  1  0.933814  0.947400  0.827345  1
  O  O25  1  0.066186  0.947400  0.327345  1
