# generated using pymatgen
data_LiMnVO4
_symmetry_space_group_name_H-M   'P 1'
_cell_length_a   6.08560000
_cell_length_b   6.08587900
_cell_length_c   8.35907300
_cell_angle_alpha   90.00106442
_cell_angle_beta   89.99945278
_cell_angle_gamma   90.00308804
_symmetry_Int_Tables_number   1
_chemical_formula_structural   LiMnVO4
_chemical_formula_sum   'Li4 Mn4 V4 O16'
_cell_volume   309.58851019
_cell_formula_units_Z   4
loop_
 _symmetry_equiv_pos_site_id
 _symmetry_equiv_pos_as_xyz
  1  'x, y, z'
loop_
 _atom_site_type_symbol
 _atom_site_label
 _atom_site_symmetry_multiplicity
 _atom_site_fract_x
 _atom_site_fract_y
 _atom_site_fract_z
 _atom_site_occupancy
  Li  Li0  1  0.000018  0.250180  0.000022  1
  Li  Li1  1  0.000013  0.749889  0.500002  1
  Li  Li2  1  0.250172  0.000032  0.249987  1
  Li  Li3  1  0.749877  0.000015  0.749999  1
  Mn  Mn4  1  0.253782  0.253764  0.624990  1
  Mn  Mn5  1  0.253822  0.746155  0.874991  1
  Mn  Mn6  1  0.746106  0.253756  0.375026  1
  Mn  Mn7  1  0.746202  0.746213  0.124989  1
  V  V8  1  0.500034  0.773735  0.499993  1
  V  V9  1  0.773745  0.500014  0.750003  1
  V  V10  1  0.226229  0.500009  0.250004  1
  V  V11  1  0.499994  0.226255  0.999993  1
  O  O12  1  0.041618  0.273335  0.258122  1
  O  O13  1  0.041621  0.726685  0.241885  1
  O  O14  1  0.273308  0.041644  0.991869  1
  O  O15  1  0.273381  0.958349  0.508108  1
  O  O16  1  0.726668  0.041631  0.008121  1
  O  O17  1  0.726728  0.958337  0.491884  1
  O  O18  1  0.958365  0.273334  0.741881  1
  O  O19  1  0.958366  0.726676  0.758132  1
  O  O20  1  0.271828  0.484639  0.025505  1
  O  O21  1  0.271836  0.515362  0.474506  1
  O  O22  1  0.484609  0.271833  0.224496  1
  O  O23  1  0.484640  0.728163  0.275501  1
  O  O24  1  0.515358  0.271838  0.775495  1
  O  O25  1  0.515378  0.728160  0.724495  1
  O  O26  1  0.728154  0.515358  0.525503  1
  O  O27  1  0.728150  0.484638  0.974502  1
