# generated using pymatgen
data_LiMn2OF3
_symmetry_space_group_name_H-M   'P 1'
_cell_length_a   6.34617189
_cell_length_b   6.32061091
_cell_length_c   6.34617046
_cell_angle_alpha   59.53944760
_cell_angle_beta   59.70021912
_cell_angle_gamma   59.53934430
_symmetry_Int_Tables_number   1
_chemical_formula_structural   LiMn2OF3
_chemical_formula_sum   'Li2 Mn4 O2 F6'
_cell_volume   178.33187497
_cell_formula_units_Z   2
loop_
 _symmetry_equiv_pos_site_id
 _symmetry_equiv_pos_as_xyz
  1  'x, y, z'
loop_
 _atom_site_type_symbol
 _atom_site_label
 _atom_site_symmetry_multiplicity
 _atom_site_fract_x
 _atom_site_fract_y
 _atom_site_fract_z
 _atom_site_occupancy
  Li  Li0  1  0.502234  0.501974  0.502232  1
  Li  Li1  1  0.857765  0.857645  0.857763  1
  Mn  Mn2  1  0.991643  0.502901  0.502401  1
  Mn  Mn3  1  0.502397  0.502902  0.991645  1
  Mn  Mn4  1  0.145188  0.147137  0.145187  1
  Mn  Mn5  1  0.504391  0.989257  0.504388  1
  O  O6  1  0.731109  0.729932  0.731109  1
  O  O7  1  0.273737  0.272694  0.273735  1
  F  F8  1  0.736726  0.255164  0.736727  1
  F  F9  1  0.252826  0.737030  0.736082  1
  F  F10  1  0.736084  0.737030  0.252825  1
  F  F11  1  0.262093  0.262524  0.741811  1
  F  F12  1  0.741812  0.262525  0.262092  1
  F  F13  1  0.261999  0.741287  0.262004  1
