# generated using pymatgen
data_Cr3Sb(PO4)4
_symmetry_space_group_name_H-M   'P 1'
_cell_length_a   4.89892438
_cell_length_b   10.21959259
_cell_length_c   5.88349700
_cell_angle_alpha   90.00085820
_cell_angle_beta   89.99984814
_cell_angle_gamma   91.03131312
_symmetry_Int_Tables_number   1
_chemical_formula_structural   Cr3Sb(PO4)4
_chemical_formula_sum   'Cr3 Sb1 P4 O16'
_cell_volume   294.50962790
_cell_formula_units_Z   1
loop_
 _symmetry_equiv_pos_site_id
 _symmetry_equiv_pos_as_xyz
  1  'x, y, z'
loop_
 _atom_site_type_symbol
 _atom_site_label
 _atom_site_symmetry_multiplicity
 _atom_site_fract_x
 _atom_site_fract_y
 _atom_site_fract_z
 _atom_site_occupancy
  Cr  Cr0  1  0.447446  0.224096  0.750168  1
  Cr  Cr1  1  0.551597  0.781789  0.249974  1
  Cr  Cr2  1  0.953495  0.264324  0.249948  1
  Sb  Sb3  1  0.040645  0.724851  0.750009  1
  P  P4  1  0.126769  0.592796  0.249996  1
  P  P5  1  0.392511  0.090713  0.250025  1
  P  P6  1  0.591485  0.923179  0.749999  1
  P  P7  1  0.893178  0.390485  0.749987  1
  O  O8  1  0.146356  0.444834  0.249991  1
  O  O9  1  0.298376  0.661796  0.050103  1
  O  O10  1  0.298347  0.661792  0.449926  1
  O  O11  1  0.201847  0.373933  0.749952  1
  O  O12  1  0.281981  0.901988  0.749959  1
  O  O13  1  0.244461  0.165925  0.047184  1
  O  O14  1  0.244484  0.165926  0.452918  1
  O  O15  1  0.322276  0.944192  0.249976  1
  O  O16  1  0.669565  0.067680  0.749985  1
  O  O17  1  0.727524  0.851587  0.540867  1
  O  O18  1  0.727500  0.851590  0.959118  1
  O  O19  1  0.701823  0.112611  0.249991  1
  O  O20  1  0.832902  0.640188  0.249978  1
  O  O21  1  0.746457  0.315691  0.544000  1
  O  O22  1  0.746532  0.315719  0.955971  1
  O  O23  1  0.812440  0.532315  0.749977  1
