# generated using pymatgen
data_LiCoSiO4
_symmetry_space_group_name_H-M   'P 1'
_cell_length_a   5.51445044
_cell_length_b   9.54459300
_cell_length_c   11.24488347
_cell_angle_alpha   90.00000643
_cell_angle_beta   89.91352647
_cell_angle_gamma   90.00108656
_symmetry_Int_Tables_number   1
_chemical_formula_structural   LiCoSiO4
_chemical_formula_sum   'Li6 Co6 Si6 O24'
_cell_volume   591.85335904
_cell_formula_units_Z   6
loop_
 _symmetry_equiv_pos_site_id
 _symmetry_equiv_pos_as_xyz
  1  'x, y, z'
loop_
 _atom_site_type_symbol
 _atom_site_label
 _atom_site_symmetry_multiplicity
 _atom_site_fract_x
 _atom_site_fract_y
 _atom_site_fract_z
 _atom_site_occupancy
  Li  Li0  1  0.999680  0.000344  0.167002  1
  Li  Li1  1  0.499722  0.500321  0.167008  1
  Li  Li2  1  0.000000  0.000095  0.500003  1
  Li  Li3  1  0.500001  0.500029  0.500003  1
  Li  Li4  1  0.000327  0.000351  0.832996  1
  Li  Li5  1  0.500273  0.500316  0.832988  1
  Co  Co6  1  0.249787  0.750291  0.166681  1
  Co  Co7  1  0.750213  0.750292  0.833320  1
  Co  Co8  1  0.000001  0.500047  0.500000  1
  Co  Co9  1  0.749787  0.250296  0.166668  1
  Co  Co10  1  0.250215  0.250297  0.833334  1
  Co  Co11  1  0.500000  0.000042  0.499998  1
  Si  Si12  1  0.750869  0.249399  0.666762  1
  Si  Si13  1  0.250860  0.749420  0.666708  1
  Si  Si14  1  0.249135  0.249401  0.333252  1
  Si  Si15  1  0.749138  0.749419  0.333279  1
  Si  Si16  1  0.499950  0.000301  0.999998  1
  Si  Si17  1  0.000047  0.500321  0.000000  1
  O  O18  1  0.809290  0.414476  0.085704  1
  O  O19  1  0.309262  0.914480  0.085656  1
  O  O20  1  0.784658  0.387714  0.581140  1
  O  O21  1  0.284669  0.887759  0.581122  1
  O  O22  1  0.026665  0.197301  0.246837  1
  O  O23  1  0.526655  0.697297  0.246851  1
  O  O24  1  0.973337  0.197302  0.753172  1
  O  O25  1  0.473335  0.697300  0.753151  1
  O  O26  1  0.215348  0.387711  0.418860  1
  O  O27  1  0.715331  0.887756  0.418876  1
  O  O28  1  0.190711  0.414475  0.914289  1
  O  O29  1  0.690732  0.914487  0.914343  1
  O  O30  1  0.282492  0.111973  0.419682  1
  O  O31  1  0.782496  0.611951  0.419718  1
  O  O32  1  0.310288  0.086032  0.914078  1
  O  O33  1  0.810265  0.586014  0.914129  1
  O  O34  1  0.473807  0.302267  0.247932  1
  O  O35  1  0.973788  0.802242  0.247933  1
  O  O36  1  0.526183  0.302266  0.752074  1
  O  O37  1  0.026217  0.802243  0.752069  1
  O  O38  1  0.689706  0.086034  0.085912  1
  O  O39  1  0.189748  0.586019  0.085873  1
  O  O40  1  0.717506  0.111972  0.580319  1
  O  O41  1  0.217505  0.611948  0.580280  1
