# generated using pymatgen
data_Li4NbFe(WO6)2
_symmetry_space_group_name_H-M   'P 1'
_cell_length_a   5.18059717
_cell_length_b   7.57568538
_cell_length_c   10.97773743
_cell_angle_alpha   85.44700634
_cell_angle_beta   89.89018078
_cell_angle_gamma   90.08095200
_symmetry_Int_Tables_number   1
_chemical_formula_structural   Li4NbFe(WO6)2
_chemical_formula_sum   'Li8 Nb2 Fe2 W4 O24'
_cell_volume   429.47768827
_cell_formula_units_Z   2
loop_
 _symmetry_equiv_pos_site_id
 _symmetry_equiv_pos_as_xyz
  1  'x, y, z'
loop_
 _atom_site_type_symbol
 _atom_site_label
 _atom_site_symmetry_multiplicity
 _atom_site_fract_x
 _atom_site_fract_y
 _atom_site_fract_z
 _atom_site_occupancy
  Li  Li0  1  0.000933  0.271357  0.294769  1
  Li  Li1  1  0.000952  0.271352  0.794767  1
  Li  Li2  1  0.498195  0.806208  0.531748  1
  Li  Li3  1  0.498049  0.806206  0.031771  1
  Li  Li4  1  0.995055  0.807685  0.293381  1
  Li  Li5  1  0.995096  0.807666  0.793343  1
  Li  Li6  1  0.504292  0.251351  0.012863  1
  Li  Li7  1  0.504372  0.251385  0.512866  1
  Nb  Nb8  1  0.501398  0.513327  0.258392  1
  Nb  Nb9  1  0.501432  0.513343  0.758397  1
  Fe  Fe10  1  0.999662  0.000857  0.504443  1
  Fe  Fe11  1  0.999597  0.000752  0.004363  1
  W  W12  1  0.996999  0.498373  0.009207  1
  W  W13  1  0.997034  0.498428  0.509196  1
  W  W14  1  0.505617  0.010419  0.248547  1
  W  W15  1  0.505628  0.010427  0.748558  1
  O  O16  1  0.306686  0.429299  0.402266  1
  O  O17  1  0.306707  0.429324  0.902229  1
  O  O18  1  0.119355  0.733361  0.490696  1
  O  O19  1  0.119314  0.733334  0.990716  1
  O  O20  1  0.321324  0.045781  0.592674  1
  O  O21  1  0.321358  0.045669  0.092631  1
  O  O22  1  0.182861  0.428899  0.651606  1
  O  O23  1  0.182964  0.428937  0.151595  1
  O  O24  1  0.792887  0.929028  0.651435  1
  O  O25  1  0.792871  0.929025  0.151446  1
  O  O26  1  0.372501  0.747457  0.743786  1
  O  O27  1  0.372477  0.747420  0.243746  1
  O  O28  1  0.624067  0.247200  0.741990  1
  O  O29  1  0.624056  0.247190  0.241975  1
  O  O30  1  0.197227  0.048312  0.837771  1
  O  O31  1  0.197230  0.048312  0.337768  1
  O  O32  1  0.819065  0.555251  0.839890  1
  O  O33  1  0.819016  0.555202  0.339905  1
  O  O34  1  0.693005  0.934414  0.893255  1
  O  O35  1  0.692997  0.934410  0.393239  1
  O  O36  1  0.884472  0.257739  0.986129  1
  O  O37  1  0.884469  0.257746  0.486123  1
  O  O38  1  0.684394  0.554969  0.086460  1
  O  O39  1  0.684377  0.554984  0.586457  1
