# generated using pymatgen
data_LiMn(PO3)3
_symmetry_space_group_name_H-M   'P 1'
_cell_length_a   6.19127002
_cell_length_b   9.99037143
_cell_length_c   11.71988359
_cell_angle_alpha   90.00565197
_cell_angle_beta   100.14520368
_cell_angle_gamma   89.99070682
_symmetry_Int_Tables_number   1
_chemical_formula_structural   LiMn(PO3)3
_chemical_formula_sum   'Li4 Mn4 P12 O36'
_cell_volume   713.57663740
_cell_formula_units_Z   4
loop_
 _symmetry_equiv_pos_site_id
 _symmetry_equiv_pos_as_xyz
  1  'x, y, z'
loop_
 _atom_site_type_symbol
 _atom_site_label
 _atom_site_symmetry_multiplicity
 _atom_site_fract_x
 _atom_site_fract_y
 _atom_site_fract_z
 _atom_site_occupancy
  Li  Li0  1  0.753603  0.500015  0.249983  1
  Li  Li1  1  0.502867  0.000001  0.500004  1
  Li  Li2  1  0.252952  0.500022  0.750007  1
  Li  Li3  1  0.003552  0.000010  0.000008  1
  Mn  Mn4  1  0.997735  0.999994  0.499957  1
  Mn  Mn5  1  0.747894  0.499980  0.750017  1
  Mn  Mn6  1  0.248523  0.499978  0.250020  1
  Mn  Mn7  1  0.498386  0.999989  0.999998  1
  P  P8  1  0.394396  0.281604  0.596308  1
  P  P9  1  0.144347  0.781566  0.846356  1
  P  P10  1  0.894417  0.281585  0.096334  1
  P  P11  1  0.644306  0.781543  0.346304  1
  P  P12  1  0.166580  0.262894  0.913018  1
  P  P13  1  0.916447  0.762926  0.163000  1
  P  P14  1  0.666546  0.262926  0.412996  1
  P  P15  1  0.416446  0.762941  0.663023  1
  P  P16  1  0.275703  0.955494  0.240635  1
  P  P17  1  0.025743  0.455520  0.490629  1
  P  P18  1  0.775689  0.955500  0.740680  1
  P  P19  1  0.525733  0.455506  0.990678  1
  O  O20  1  0.268318  0.398219  0.516513  1
  O  O21  1  0.018232  0.898190  0.766596  1
  O  O22  1  0.768311  0.398221  0.016552  1
  O  O23  1  0.518275  0.898169  0.266528  1
  O  O24  1  0.109697  0.284323  0.040417  1
  O  O25  1  0.859654  0.784399  0.290423  1
  O  O26  1  0.609708  0.284348  0.540400  1
  O  O27  1  0.359661  0.784429  0.790433  1
  O  O28  1  0.160398  0.817425  0.193013  1
  O  O29  1  0.910489  0.317399  0.442999  1
  O  O30  1  0.660432  0.817415  0.693038  1
  O  O31  1  0.410544  0.317384  0.943041  1
  O  O32  1  0.526579  0.349940  0.324031  1
  O  O33  1  0.276534  0.849933  0.574018  1
  O  O34  1  0.026584  0.349901  0.824053  1
  O  O35  1  0.776548  0.849920  0.073984  1
  O  O36  1  0.527296  0.649006  0.325573  1
  O  O37  1  0.277219  0.149108  0.575585  1
  O  O38  1  0.027305  0.649034  0.825627  1
  O  O39  1  0.777261  0.149078  0.075624  1
  O  O40  1  0.452001  0.500974  0.100425  1
  O  O41  1  0.201957  0.001020  0.350357  1
  O  O42  1  0.951982  0.501002  0.600361  1
  O  O43  1  0.701959  0.001029  0.850401  1
  O  O44  1  0.023063  0.545746  0.387198  1
  O  O45  1  0.773019  0.045725  0.637233  1
  O  O46  1  0.522944  0.545724  0.887222  1
  O  O47  1  0.273073  0.045754  0.137237  1
  O  O48  1  0.966007  0.339942  0.215719  1
  O  O49  1  0.715690  0.839930  0.465688  1
  O  O50  1  0.465914  0.339980  0.715706  1
  O  O51  1  0.215856  0.839890  0.965739  1
  O  O52  1  0.942922  0.614376  0.147079  1
  O  O53  1  0.692906  0.114347  0.397056  1
  O  O54  1  0.442840  0.614369  0.647119  1
  O  O55  1  0.192991  0.114343  0.897054  1
