# generated using pymatgen
data_VSb3(PO4)4
_symmetry_space_group_name_H-M   'P 1'
_cell_length_a   4.89385151
_cell_length_b   10.17102120
_cell_length_c   6.85555853
_cell_angle_alpha   89.95998115
_cell_angle_beta   90.15569799
_cell_angle_gamma   94.51696624
_symmetry_Int_Tables_number   1
_chemical_formula_structural   VSb3(PO4)4
_chemical_formula_sum   'V1 Sb3 P4 O16'
_cell_volume   340.17746684
_cell_formula_units_Z   1
loop_
 _symmetry_equiv_pos_site_id
 _symmetry_equiv_pos_as_xyz
  1  'x, y, z'
loop_
 _atom_site_type_symbol
 _atom_site_label
 _atom_site_symmetry_multiplicity
 _atom_site_fract_x
 _atom_site_fract_y
 _atom_site_fract_z
 _atom_site_occupancy
  V  V0  1  0.931115  0.271300  0.248531  1
  Sb  Sb1  1  0.094959  0.715478  0.750673  1
  Sb  Sb2  1  0.406292  0.201344  0.749205  1
  Sb  Sb3  1  0.588731  0.797022  0.250854  1
  P  P4  1  0.117349  0.599102  0.249671  1
  P  P5  1  0.322271  0.101581  0.250381  1
  P  P6  1  0.690566  0.911282  0.749599  1
  P  P7  1  0.869344  0.390854  0.750543  1
  O  O8  1  0.123286  0.449441  0.250177  1
  O  O9  1  0.283278  0.669096  0.075659  1
  O  O10  1  0.285563  0.669346  0.422950  1
  O  O11  1  0.180868  0.374575  0.749975  1
  O  O12  1  0.374373  0.899587  0.750348  1
  O  O13  1  0.186520  0.176485  0.076668  1
  O  O14  1  0.187837  0.176606  0.423841  1
  O  O15  1  0.248426  0.953969  0.250433  1
  O  O16  1  0.792496  0.055578  0.749584  1
  O  O17  1  0.806722  0.827383  0.574877  1
  O  O18  1  0.809204  0.827123  0.923548  1
  O  O19  1  0.634545  0.132526  0.250279  1
  O  O20  1  0.814677  0.629322  0.250300  1
  O  O21  1  0.719557  0.317243  0.571247  1
  O  O22  1  0.721415  0.317223  0.930155  1
  O  O23  1  0.810608  0.536536  0.750502  1
