# generated using pymatgen
data_LiCrSiO4
_symmetry_space_group_name_H-M   'P 1'
_cell_length_a   5.69923500
_cell_length_b   8.04846200
_cell_length_c   5.69923700
_cell_angle_alpha   89.99998283
_cell_angle_beta   90.00006032
_cell_angle_gamma   90.00001717
_symmetry_Int_Tables_number   1
_chemical_formula_structural   LiCrSiO4
_chemical_formula_sum   'Li4 Cr4 Si4 O16'
_cell_volume   261.42443619
_cell_formula_units_Z   4
loop_
 _symmetry_equiv_pos_site_id
 _symmetry_equiv_pos_as_xyz
  1  'x, y, z'
loop_
 _atom_site_type_symbol
 _atom_site_label
 _atom_site_symmetry_multiplicity
 _atom_site_fract_x
 _atom_site_fract_y
 _atom_site_fract_z
 _atom_site_occupancy
  Li  Li0  1  0.220074  0.000000  0.000000  1
  Li  Li1  1  0.779927  0.500000  0.000000  1
  Li  Li2  1  0.000001  0.250000  0.220072  1
  Li  Li3  1  0.000000  0.750000  0.779928  1
  Cr  Cr4  1  0.235085  0.000000  0.500001  1
  Cr  Cr5  1  0.764911  0.500000  0.500000  1
  Cr  Cr6  1  0.500003  0.250000  0.235096  1
  Cr  Cr7  1  0.500001  0.750000  0.764904  1
  Si  Si8  1  0.255175  0.625001  0.255176  1
  Si  Si9  1  0.744824  0.875000  0.255177  1
  Si  Si10  1  0.255175  0.374999  0.744824  1
  Si  Si11  1  0.744824  0.125000  0.744823  1
  O  O12  1  0.260247  0.260934  0.984417  1
  O  O13  1  0.739754  0.239066  0.984415  1
  O  O14  1  0.984418  0.989068  0.260249  1
  O  O15  1  0.015582  0.510932  0.260247  1
  O  O16  1  0.015582  0.489068  0.739751  1
  O  O17  1  0.984417  0.010932  0.739751  1
  O  O18  1  0.260246  0.739066  0.015583  1
  O  O19  1  0.739754  0.760934  0.015584  1
  O  O20  1  0.495657  0.500908  0.259786  1
  O  O21  1  0.504343  0.999092  0.259787  1
  O  O22  1  0.259780  0.250903  0.504346  1
  O  O23  1  0.740220  0.249098  0.504347  1
  O  O24  1  0.259780  0.749098  0.495653  1
  O  O25  1  0.740221  0.750903  0.495653  1
  O  O26  1  0.495657  0.499092  0.740214  1
  O  O27  1  0.504343  0.000908  0.740213  1
