# generated using pymatgen
data_CuH6SO7
_symmetry_space_group_name_H-M   'P 1'
_cell_length_a   7.43485429
_cell_length_b   7.43485429
_cell_length_c   7.22833228
_cell_angle_alpha   86.42731020
_cell_angle_beta   86.42731020
_cell_angle_gamma   136.14931074
_symmetry_Int_Tables_number   1
_chemical_formula_structural   CuH6SO7
_chemical_formula_sum   'Cu2 H12 S2 O14'
_cell_volume   272.92651669
_cell_formula_units_Z   2
loop_
 _symmetry_equiv_pos_site_id
 _symmetry_equiv_pos_as_xyz
  1  'x, y, z'
loop_
 _atom_site_type_symbol
 _atom_site_label
 _atom_site_symmetry_multiplicity
 _atom_site_fract_x
 _atom_site_fract_y
 _atom_site_fract_z
 _atom_site_occupancy
  Cu  Cu0  1  0.870320  0.148282  0.998833  1
  Cu  Cu1  1  0.148282  0.870320  0.498833  1
  H  H2  1  0.979494  0.166263  0.640480  1
  H  H3  1  0.166263  0.979494  0.140480  1
  H  H4  1  0.153680  0.464548  0.676372  1
  H  H5  1  0.464548  0.153680  0.176372  1
  H  H6  1  0.431203  0.260165  0.704309  1
  H  H7  1  0.260165  0.431203  0.204309  1
  H  H8  1  0.432099  0.352323  0.499137  1
  H  H9  1  0.352323  0.432099  0.999137  1
  H  H10  1  0.389411  0.764877  0.985191  1
  H  H11  1  0.764877  0.389411  0.485191  1
  H  H12  1  0.522261  0.916500  0.776285  1
  H  H13  1  0.916500  0.522261  0.276285  1
  S  S14  1  0.835608  0.622112  0.922957  1
  S  S15  1  0.622112  0.835608  0.422957  1
  O  O16  1  0.003907  0.673152  0.754129  1
  O  O17  1  0.673152  0.003907  0.254129  1
  O  O18  1  0.456651  0.816024  0.571118  1
  O  O19  1  0.816024  0.456651  0.071118  1
  O  O20  1  0.569146  0.472451  0.876784  1
  O  O21  1  0.472451  0.569146  0.376784  1
  O  O22  1  0.871369  0.957726  0.486435  1
  O  O23  1  0.957726  0.871369  0.986435  1
  O  O24  1  0.056997  0.285945  0.738137  1
  O  O25  1  0.285945  0.056997  0.238137  1
  O  O26  1  0.423060  0.224477  0.572506  1
  O  O27  1  0.224477  0.423060  0.072506  1
  O  O28  1  0.529814  0.943335  0.911626  1
  O  O29  1  0.943335  0.529814  0.411626  1
