# generated using pymatgen
data_MnPH6NO5
_symmetry_space_group_name_H-M   'P 1'
_cell_length_a   4.89491601
_cell_length_b   5.77897000
_cell_length_c   18.05511104
_cell_angle_alpha   89.99995479
_cell_angle_beta   90.00727164
_cell_angle_gamma   89.99988199
_symmetry_Int_Tables_number   1
_chemical_formula_structural   MnPH6NO5
_chemical_formula_sum   'Mn4 P4 H24 N4 O20'
_cell_volume   510.73526326
_cell_formula_units_Z   4
loop_
 _symmetry_equiv_pos_site_id
 _symmetry_equiv_pos_as_xyz
  1  'x, y, z'
loop_
 _atom_site_type_symbol
 _atom_site_label
 _atom_site_symmetry_multiplicity
 _atom_site_fract_x
 _atom_site_fract_y
 _atom_site_fract_z
 _atom_site_occupancy
  Mn  Mn0  1  0.527765  0.500006  0.512346  1
  Mn  Mn1  1  0.027418  0.999999  0.987567  1
  Mn  Mn2  1  0.527126  0.499996  0.012545  1
  Mn  Mn3  1  0.027214  0.999998  0.487368  1
  P  P4  1  0.096455  0.499999  0.400567  1
  P  P5  1  0.096010  0.499997  0.900595  1
  P  P6  1  0.596239  0.000000  0.099394  1
  P  P7  1  0.596141  0.000001  0.599417  1
  H  H8  1  0.819475  0.500000  0.271600  1
  H  H9  1  0.819499  0.500001  0.771614  1
  H  H10  1  0.319461  0.000000  0.228422  1
  H  H11  1  0.319478  0.000000  0.728417  1
  H  H12  1  0.463778  0.500000  0.273142  1
  H  H13  1  0.463784  0.500001  0.773150  1
  H  H14  1  0.963770  0.000000  0.226871  1
  H  H15  1  0.963769  0.000001  0.726868  1
  H  H16  1  0.636982  0.647627  0.206850  1
  H  H17  1  0.636915  0.647628  0.706859  1
  H  H18  1  0.636983  0.352373  0.206851  1
  H  H19  1  0.636916  0.352372  0.706859  1
  H  H20  1  0.136996  0.852370  0.293167  1
  H  H21  1  0.136957  0.852370  0.793163  1
  H  H22  1  0.136995  0.147630  0.293167  1
  H  H23  1  0.136957  0.147630  0.793163  1
  H  H24  1  0.079106  0.635245  0.097044  1
  H  H25  1  0.079752  0.635295  0.597024  1
  H  H26  1  0.079110  0.364755  0.097044  1
  H  H27  1  0.079756  0.364706  0.597024  1
  H  H28  1  0.579132  0.864758  0.402972  1
  H  H29  1  0.579408  0.864727  0.902983  1
  H  H30  1  0.579131  0.135242  0.402973  1
  H  H31  1  0.579408  0.135272  0.902983  1
  N  N32  1  0.639769  0.500000  0.239339  1
  N  N33  1  0.639714  0.500000  0.739349  1
  N  N34  1  0.139747  0.000000  0.260682  1
  N  N35  1  0.139733  0.000000  0.760676  1
  O  O36  1  0.790293  0.500001  0.417888  1
  O  O37  1  0.789893  0.499999  0.917997  1
  O  O38  1  0.290113  0.999999  0.082029  1
  O  O39  1  0.289978  0.999999  0.582038  1
  O  O40  1  0.141280  0.499998  0.315206  1
  O  O41  1  0.140513  0.500003  0.815219  1
  O  O42  1  0.640891  0.000002  0.184767  1
  O  O43  1  0.640627  0.000002  0.684799  1
  O  O44  1  0.200534  0.500001  0.103242  1
  O  O45  1  0.201149  0.500001  0.603123  1
  O  O46  1  0.700579  0.000000  0.396798  1
  O  O47  1  0.700806  0.000000  0.896833  1
  O  O48  1  0.242502  0.715775  0.436368  1
  O  O49  1  0.242187  0.715810  0.936353  1
  O  O50  1  0.242502  0.284223  0.436367  1
  O  O51  1  0.242179  0.284182  0.936355  1
  O  O52  1  0.742263  0.784185  0.063624  1
  O  O53  1  0.742303  0.784199  0.563658  1
  O  O54  1  0.742264  0.215814  0.063623  1
  O  O55  1  0.742298  0.215803  0.563658  1
