# generated using pymatgen
data_Ni(IO3)2
_symmetry_space_group_name_H-M   'P 1'
_cell_length_a   5.32103404
_cell_length_b   9.35908694
_cell_length_c   10.97314730
_cell_angle_alpha   89.87543716
_cell_angle_beta   89.98919624
_cell_angle_gamma   89.99088963
_symmetry_Int_Tables_number   1
_chemical_formula_structural   Ni(IO3)2
_chemical_formula_sum   'Ni4 I8 O24'
_cell_volume   546.46164914
_cell_formula_units_Z   4
loop_
 _symmetry_equiv_pos_site_id
 _symmetry_equiv_pos_as_xyz
  1  'x, y, z'
loop_
 _atom_site_type_symbol
 _atom_site_label
 _atom_site_symmetry_multiplicity
 _atom_site_fract_x
 _atom_site_fract_y
 _atom_site_fract_z
 _atom_site_occupancy
  Ni  Ni0  1  0.414331  0.746873  0.383442  1
  Ni  Ni1  1  0.914453  0.253074  0.616668  1
  Ni  Ni2  1  0.414405  0.746719  0.883231  1
  Ni  Ni3  1  0.914192  0.253170  0.116696  1
  I  I4  1  0.488403  0.933774  0.631621  1
  I  I5  1  0.488384  0.933773  0.131629  1
  I  I6  1  0.988402  0.066303  0.368446  1
  I  I7  1  0.988367  0.066232  0.868449  1
  I  I8  1  0.016273  0.599854  0.635439  1
  I  I9  1  0.016033  0.599960  0.135372  1
  I  I10  1  0.516324  0.400199  0.364667  1
  I  I11  1  0.516117  0.400081  0.864693  1
  O  O12  1  0.202509  0.919471  0.825178  1
  O  O13  1  0.202472  0.919484  0.325203  1
  O  O14  1  0.702488  0.080500  0.174840  1
  O  O15  1  0.702479  0.080497  0.674816  1
  O  O16  1  0.202160  0.599763  0.777621  1
  O  O17  1  0.202042  0.599901  0.277545  1
  O  O18  1  0.702021  0.400121  0.222388  1
  O  O19  1  0.701960  0.400049  0.722461  1
  O  O20  1  0.632856  0.799794  0.733458  1
  O  O21  1  0.632783  0.799806  0.233462  1
  O  O22  1  0.132822  0.200205  0.266539  1
  O  O23  1  0.132790  0.200185  0.766555  1
  O  O24  1  0.131135  0.430696  0.571764  1
  O  O25  1  0.130985  0.430707  0.071698  1
  O  O26  1  0.631232  0.569443  0.428048  1
  O  O27  1  0.631641  0.569341  0.927977  1
  O  O28  1  0.203981  0.727676  0.544803  1
  O  O29  1  0.202956  0.728064  0.044600  1
  O  O30  1  0.704320  0.272512  0.455260  1
  O  O31  1  0.702858  0.271844  0.955421  1
  O  O32  1  0.146099  0.122049  0.510533  1
  O  O33  1  0.145880  0.122085  0.010513  1
  O  O34  1  0.645942  0.877920  0.489497  1
  O  O35  1  0.645902  0.877873  0.989467  1
