# generated using pymatgen
data_Li4MnNb2WO12
_symmetry_space_group_name_H-M   'P 1'
_cell_length_a   5.46349838
_cell_length_b   10.93677366
_cell_length_c   9.63551192
_cell_angle_alpha   28.17676204
_cell_angle_beta   51.10676057
_cell_angle_gamma   56.34351229
_symmetry_Int_Tables_number   1
_chemical_formula_structural   Li4MnNb2WO12
_chemical_formula_sum   'Li4 Mn1 Nb2 W1 O12'
_cell_volume   211.59743463
_cell_formula_units_Z   1
loop_
 _symmetry_equiv_pos_site_id
 _symmetry_equiv_pos_as_xyz
  1  'x, y, z'
loop_
 _atom_site_type_symbol
 _atom_site_label
 _atom_site_symmetry_multiplicity
 _atom_site_fract_x
 _atom_site_fract_y
 _atom_site_fract_z
 _atom_site_occupancy
  Li  Li0  1  0.254490  0.997876  0.312021  1
  Li  Li1  1  0.323842  0.498623  0.270518  1
  Li  Li2  1  0.773518  0.006302  0.732219  1
  Li  Li3  1  0.767588  0.496229  0.812733  1
  Mn  Mn4  1  0.001683  0.500060  0.998518  1
  Nb  Nb5  1  0.487993  0.004471  0.505995  1
  Nb  Nb6  1  0.524988  0.498331  0.502156  1
  W  W7  1  0.003394  0.003070  0.004770  1
  O  O8  1  0.352223  0.299845  0.135928  1
  O  O9  1  0.225315  0.124053  0.633708  1
  O  O10  1  0.114030  0.312691  0.743992  1
  O  O11  1  0.857131  0.205653  0.231082  1
  O  O12  1  0.368725  0.818696  0.112664  1
  O  O13  1  0.729907  0.390443  0.355120  1
  O  O14  1  0.242876  0.613846  0.631504  1
  O  O15  1  0.623979  0.171824  0.885225  1
  O  O16  1  0.136583  0.803947  0.739922  1
  O  O17  1  0.887406  0.691012  0.238588  1
  O  O18  1  0.752218  0.872627  0.367026  1
  O  O19  1  0.643312  0.690401  0.857517  1
