# generated using pymatgen
data_LiGePCO7
_symmetry_space_group_name_H-M   'P 1'
_cell_length_a   6.23256100
_cell_length_b   5.06550800
_cell_length_c   8.62290786
_cell_angle_alpha   85.45187306
_cell_angle_beta   90.00000000
_cell_angle_gamma   90.00000000
_symmetry_Int_Tables_number   1
_chemical_formula_structural   LiGePCO7
_chemical_formula_sum   'Li2 Ge2 P2 C2 O14'
_cell_volume   271.37733414
_cell_formula_units_Z   2
loop_
 _symmetry_equiv_pos_site_id
 _symmetry_equiv_pos_as_xyz
  1  'x, y, z'
loop_
 _atom_site_type_symbol
 _atom_site_label
 _atom_site_symmetry_multiplicity
 _atom_site_fract_x
 _atom_site_fract_y
 _atom_site_fract_z
 _atom_site_occupancy
  Li  Li0  1  0.474901  0.771860  0.816669  1
  Li  Li1  1  0.974901  0.228140  0.183331  1
  Ge  Ge2  1  0.248515  0.211202  0.662667  1
  Ge  Ge3  1  0.748515  0.788798  0.337333  1
  P  P4  1  0.754219  0.265251  0.568933  1
  P  P5  1  0.254219  0.734749  0.431067  1
  C  C6  1  0.253290  0.274738  0.934310  1
  C  C7  1  0.753290  0.725262  0.065690  1
  O  O8  1  0.730764  0.686145  0.927842  1
  O  O9  1  0.255191  0.038993  0.873833  1
  O  O10  1  0.271001  0.467701  0.817245  1
  O  O11  1  0.948469  0.196077  0.673525  1
  O  O12  1  0.558634  0.179595  0.669695  1
  O  O13  1  0.259800  0.873494  0.584887  1
  O  O14  1  0.747366  0.570676  0.522824  1
  O  O15  1  0.247366  0.429324  0.477176  1
  O  O16  1  0.759800  0.126506  0.415113  1
  O  O17  1  0.058634  0.820405  0.330305  1
  O  O18  1  0.448469  0.803923  0.326475  1
  O  O19  1  0.771001  0.532299  0.182755  1
  O  O20  1  0.755191  0.961007  0.126167  1
  O  O21  1  0.230764  0.313855  0.072158  1
