# generated using pymatgen
data_LiCrSiO4
_symmetry_space_group_name_H-M   'P 1'
_cell_length_a   4.73463300
_cell_length_b   6.14987200
_cell_length_c   10.27605400
_cell_angle_alpha   90.00000000
_cell_angle_beta   90.00001768
_cell_angle_gamma   89.99996927
_symmetry_Int_Tables_number   1
_chemical_formula_structural   LiCrSiO4
_chemical_formula_sum   'Li4 Cr4 Si4 O16'
_cell_volume   299.21184030
_cell_formula_units_Z   4
loop_
 _symmetry_equiv_pos_site_id
 _symmetry_equiv_pos_as_xyz
  1  'x, y, z'
loop_
 _atom_site_type_symbol
 _atom_site_label
 _atom_site_symmetry_multiplicity
 _atom_site_fract_x
 _atom_site_fract_y
 _atom_site_fract_z
 _atom_site_occupancy
  Li  Li0  1  0.017723  0.005356  0.215323  1
  Li  Li1  1  0.482277  0.005356  0.715324  1
  Li  Li2  1  0.517723  0.505356  0.284670  1
  Li  Li3  1  0.982277  0.505356  0.784671  1
  Cr  Cr4  1  0.000051  0.256703  0.500076  1
  Cr  Cr5  1  0.500050  0.256693  0.000008  1
  Cr  Cr6  1  0.499982  0.756769  0.999970  1
  Cr  Cr7  1  0.999921  0.756678  0.500024  1
  Si  Si8  1  0.080908  0.506666  0.090497  1
  Si  Si9  1  0.419095  0.506669  0.590497  1
  Si  Si10  1  0.580908  0.006669  0.409495  1
  Si  Si11  1  0.919096  0.006666  0.909495  1
  O  O12  1  0.250389  0.506478  0.943037  1
  O  O13  1  0.221787  0.284734  0.150020  1
  O  O14  1  0.221266  0.729088  0.149525  1
  O  O15  1  0.234217  0.006665  0.419382  1
  O  O16  1  0.265776  0.006669  0.919377  1
  O  O17  1  0.278735  0.729084  0.649528  1
  O  O18  1  0.278217  0.284735  0.650024  1
  O  O19  1  0.249611  0.506476  0.443041  1
  O  O20  1  0.750387  0.006476  0.556958  1
  O  O21  1  0.721784  0.784733  0.349974  1
  O  O22  1  0.721269  0.229087  0.350470  1
  O  O23  1  0.734216  0.506670  0.080611  1
  O  O24  1  0.765778  0.506664  0.580616  1
  O  O25  1  0.778734  0.229085  0.850465  1
  O  O26  1  0.778213  0.784736  0.849970  1
  O  O27  1  0.749613  0.006477  0.056952  1
