# generated using pymatgen
data_Sr2CdAs2
_symmetry_space_group_name_H-M   'P 1'
_cell_length_a   8.83742607
_cell_length_b   8.83742607
_cell_length_c   7.68813700
_cell_angle_alpha   90.00000000
_cell_angle_beta   90.00000000
_cell_angle_gamma   150.61966630
_symmetry_Int_Tables_number   1
_chemical_formula_structural   Sr2CdAs2
_chemical_formula_sum   'Sr4 Cd2 As4'
_cell_volume   294.58077116
_cell_formula_units_Z   2
loop_
 _symmetry_equiv_pos_site_id
 _symmetry_equiv_pos_as_xyz
  1  'x, y, z'
loop_
 _atom_site_type_symbol
 _atom_site_label
 _atom_site_symmetry_multiplicity
 _atom_site_fract_x
 _atom_site_fract_y
 _atom_site_fract_z
 _atom_site_occupancy
  Sr  Sr0  1  0.534148  0.465852  0.235988  1
  Sr  Sr1  1  0.702848  0.297152  0.892650  1
  Sr  Sr2  1  0.297152  0.702848  0.392650  1
  Sr  Sr3  1  0.465852  0.534148  0.735988  1
  Cd  Cd4  1  0.095968  0.904032  0.577988  1
  Cd  Cd5  1  0.904032  0.095968  0.077988  1
  As  As6  1  0.063330  0.936670  0.941884  1
  As  As7  1  0.675531  0.324469  0.485848  1
  As  As8  1  0.324469  0.675531  0.985848  1
  As  As9  1  0.936670  0.063330  0.441884  1
