# generated using pymatgen
data_Ta2CrNO5
_symmetry_space_group_name_H-M   'P 1'
_cell_length_a   4.75062800
_cell_length_b   9.50949900
_cell_length_c   9.26020500
_cell_angle_alpha   89.99997558
_cell_angle_beta   89.99999381
_cell_angle_gamma   89.99927667
_symmetry_Int_Tables_number   1
_chemical_formula_structural   Ta2CrNO5
_chemical_formula_sum   'Ta8 Cr4 N4 O20'
_cell_volume   418.33987500
_cell_formula_units_Z   4
loop_
 _symmetry_equiv_pos_site_id
 _symmetry_equiv_pos_as_xyz
  1  'x, y, z'
loop_
 _atom_site_type_symbol
 _atom_site_label
 _atom_site_symmetry_multiplicity
 _atom_site_fract_x
 _atom_site_fract_y
 _atom_site_fract_z
 _atom_site_occupancy
  Ta  Ta0  1  0.994475  0.007539  0.337893  1
  Ta  Ta1  1  0.994476  0.507522  0.337871  1
  Ta  Ta2  1  0.994474  0.007539  0.662109  1
  Ta  Ta3  1  0.994475  0.507522  0.662126  1
  Ta  Ta4  1  0.505528  0.257512  0.162104  1
  Ta  Ta5  1  0.505547  0.757534  0.162128  1
  Ta  Ta6  1  0.505533  0.257510  0.837898  1
  Ta  Ta7  1  0.505544  0.757537  0.837874  1
  Cr  Cr8  1  0.001531  0.997605  0.000007  1
  Cr  Cr9  1  0.498496  0.747613  0.500005  1
  Cr  Cr10  1  0.001467  0.497721  0.999994  1
  Cr  Cr11  1  0.498521  0.247736  0.500004  1
  N  N12  1  0.698113  0.346119  0.999999  1
  N  N13  1  0.698107  0.846099  0.999999  1
  N  N14  1  0.801903  0.096117  0.499999  1
  N  N15  1  0.801907  0.596099  0.500001  1
  O  O16  1  0.192499  0.400847  0.499999  1
  O  O17  1  0.192521  0.900832  0.500000  1
  O  O18  1  0.307495  0.150841  0.000000  1
  O  O19  1  0.307503  0.650844  0.999999  1
  O  O20  1  0.197570  0.399168  0.831240  1
  O  O21  1  0.197594  0.899147  0.831245  1
  O  O22  1  0.197570  0.399168  0.168757  1
  O  O23  1  0.197594  0.899148  0.168755  1
  O  O24  1  0.302413  0.149151  0.331238  1
  O  O25  1  0.302400  0.649135  0.331234  1
  O  O26  1  0.302413  0.149150  0.668762  1
  O  O27  1  0.302400  0.649134  0.668765  1
  O  O28  1  0.696016  0.346023  0.330101  1
  O  O29  1  0.695982  0.846000  0.330100  1
  O  O30  1  0.696017  0.346024  0.669898  1
  O  O31  1  0.695982  0.845999  0.669899  1
  O  O32  1  0.803992  0.096009  0.169900  1
  O  O33  1  0.803975  0.596020  0.169906  1
  O  O34  1  0.803993  0.096010  0.830100  1
  O  O35  1  0.803974  0.596019  0.830092  1
