# generated using pymatgen
data_Ca4SnS6
_symmetry_space_group_name_H-M   'P 1'
_cell_length_a   7.67673417
_cell_length_b   7.67673417
_cell_length_c   13.50416230
_cell_angle_alpha   70.45471271
_cell_angle_beta   70.45471271
_cell_angle_gamma   58.65871955
_symmetry_Int_Tables_number   1
_chemical_formula_structural   Ca4SnS6
_chemical_formula_sum   'Ca8 Sn2 S12'
_cell_volume   627.66885292
_cell_formula_units_Z   2
loop_
 _symmetry_equiv_pos_site_id
 _symmetry_equiv_pos_as_xyz
  1  'x, y, z'
loop_
 _atom_site_type_symbol
 _atom_site_label
 _atom_site_symmetry_multiplicity
 _atom_site_fract_x
 _atom_site_fract_y
 _atom_site_fract_z
 _atom_site_occupancy
  Ca  Ca0  1  0.692993  0.916400  0.861948  1
  Ca  Ca1  1  0.916400  0.692993  0.361948  1
  Ca  Ca2  1  0.229073  0.487827  0.043341  1
  Ca  Ca3  1  0.487827  0.229073  0.543341  1
  Ca  Ca4  1  0.051274  0.268163  0.855898  1
  Ca  Ca5  1  0.268163  0.051274  0.355898  1
  Ca  Ca6  1  0.352037  0.713977  0.704905  1
  Ca  Ca7  1  0.713977  0.352037  0.204905  1
  Sn  Sn8  1  0.319777  0.876751  0.109226  1
  Sn  Sn9  1  0.876751  0.319777  0.609226  1
  S  S10  1  0.598746  0.083033  0.364228  1
  S  S11  1  0.083033  0.598746  0.864228  1
  S  S12  1  0.548608  0.586580  0.017065  1
  S  S13  1  0.586580  0.548608  0.517065  1
  S  S14  1  0.511295  0.070962  0.052822  1
  S  S15  1  0.070962  0.511295  0.552822  1
  S  S16  1  0.044422  0.983491  0.566807  1
  S  S17  1  0.983491  0.044422  0.066807  1
  S  S18  1  0.005359  0.415279  0.243610  1
  S  S19  1  0.415279  0.005359  0.743610  1
  S  S20  1  0.712973  0.308780  0.795949  1
  S  S21  1  0.308780  0.712973  0.295949  1
