# generated using pymatgen
data_Li2MnP2O7
_symmetry_space_group_name_H-M   'P 1'
_cell_length_a   7.83363800
_cell_length_b   7.83429600
_cell_length_c   10.24183700
_cell_angle_alpha   90.00072371
_cell_angle_beta   89.99986704
_cell_angle_gamma   90.00073138
_symmetry_Int_Tables_number   1
_chemical_formula_structural   Li2MnP2O7
_chemical_formula_sum   'Li8 Mn4 P8 O28'
_cell_volume   628.55217636
_cell_formula_units_Z   4
loop_
 _symmetry_equiv_pos_site_id
 _symmetry_equiv_pos_as_xyz
  1  'x, y, z'
loop_
 _atom_site_type_symbol
 _atom_site_label
 _atom_site_symmetry_multiplicity
 _atom_site_fract_x
 _atom_site_fract_y
 _atom_site_fract_z
 _atom_site_occupancy
  Li  Li0  1  0.226254  0.726247  0.273282  1
  Li  Li1  1  0.226280  0.726270  0.773292  1
  Li  Li2  1  0.273734  0.226258  0.226705  1
  Li  Li3  1  0.273739  0.226270  0.726701  1
  Li  Li4  1  0.726274  0.773738  0.226704  1
  Li  Li5  1  0.726267  0.773728  0.726702  1
  Li  Li6  1  0.773736  0.273728  0.273289  1
  Li  Li7  1  0.773746  0.273747  0.773285  1
  Mn  Mn8  1  0.999981  0.000031  0.500053  1
  Mn  Mn9  1  0.499938  0.499999  0.000027  1
  Mn  Mn10  1  0.999980  0.000003  0.999992  1
  Mn  Mn11  1  0.499959  0.500046  0.500072  1
  P  P12  1  0.140619  0.359386  0.444191  1
  P  P13  1  0.140624  0.359382  0.944200  1
  P  P14  1  0.359380  0.859395  0.055802  1
  P  P15  1  0.359380  0.859385  0.555784  1
  P  P16  1  0.640619  0.140608  0.055796  1
  P  P17  1  0.640618  0.140619  0.555790  1
  P  P18  1  0.859385  0.640611  0.444191  1
  P  P19  1  0.859376  0.640614  0.944200  1
  O  O20  1  0.000006  0.499995  0.402586  1
  O  O21  1  0.000005  0.499998  0.902590  1
  O  O22  1  0.500013  0.000004  0.097407  1
  O  O23  1  0.499995  0.999984  0.597403  1
  O  O24  1  0.156366  0.343645  0.090264  1
  O  O25  1  0.156350  0.343648  0.590269  1
  O  O26  1  0.343660  0.843641  0.409720  1
  O  O27  1  0.343649  0.843653  0.909728  1
  O  O28  1  0.656362  0.156354  0.409729  1
  O  O29  1  0.656357  0.156345  0.909723  1
  O  O30  1  0.843653  0.656355  0.090265  1
  O  O31  1  0.843651  0.656337  0.590269  1
  O  O32  1  0.078278  0.195871  0.373809  1
  O  O33  1  0.078272  0.195862  0.873822  1
  O  O34  1  0.195846  0.921738  0.126176  1
  O  O35  1  0.195840  0.921731  0.626154  1
  O  O36  1  0.304158  0.421732  0.373813  1
  O  O37  1  0.304173  0.421733  0.873843  1
  O  O38  1  0.421722  0.695886  0.126196  1
  O  O39  1  0.421735  0.695864  0.626174  1
  O  O40  1  0.578280  0.304109  0.126193  1
  O  O41  1  0.578267  0.304140  0.626166  1
  O  O42  1  0.695858  0.578258  0.373814  1
  O  O43  1  0.695819  0.578254  0.873849  1
  O  O44  1  0.804154  0.078263  0.126178  1
  O  O45  1  0.804159  0.078269  0.626162  1
  O  O46  1  0.921735  0.804139  0.373817  1
  O  O47  1  0.921745  0.804124  0.873823  1
