# generated using pymatgen
data_Li3CrO4
_symmetry_space_group_name_H-M   'P 1'
_cell_length_a   5.03548276
_cell_length_b   5.03548276
_cell_length_c   6.21722900
_cell_angle_alpha   90.00000000
_cell_angle_beta   90.00000000
_cell_angle_gamma   105.80252294
_symmetry_Int_Tables_number   1
_chemical_formula_structural   Li3CrO4
_chemical_formula_sum   'Li6 Cr2 O8'
_cell_volume   151.68657790
_cell_formula_units_Z   2
loop_
 _symmetry_equiv_pos_site_id
 _symmetry_equiv_pos_as_xyz
  1  'x, y, z'
loop_
 _atom_site_type_symbol
 _atom_site_label
 _atom_site_symmetry_multiplicity
 _atom_site_fract_x
 _atom_site_fract_y
 _atom_site_fract_z
 _atom_site_occupancy
  Li  Li0  1  0.258752  0.257783  0.751117  1
  Li  Li1  1  0.257783  0.258752  0.251117  1
  Li  Li2  1  0.227500  0.772500  0.013628  1
  Li  Li3  1  0.742217  0.741248  0.751117  1
  Li  Li4  1  0.741248  0.742217  0.251117  1
  Li  Li5  1  0.772500  0.227500  0.513628  1
  Cr  Cr6  1  0.752414  0.247586  0.059010  1
  Cr  Cr7  1  0.247586  0.752414  0.559010  1
  O  O8  1  0.024061  0.525448  0.735910  1
  O  O9  1  0.545495  0.454505  0.976663  1
  O  O10  1  0.525448  0.024061  0.235910  1
  O  O11  1  0.454505  0.545495  0.476663  1
  O  O12  1  0.039700  0.960300  0.475246  1
  O  O13  1  0.975939  0.474552  0.235910  1
  O  O14  1  0.960300  0.039700  0.975246  1
  O  O15  1  0.474552  0.975939  0.735910  1
