# generated using pymatgen
data_LiTiV2O6
_symmetry_space_group_name_H-M   'P 1'
_cell_length_a   3.02463457
_cell_length_b   12.54719310
_cell_length_c   6.02511660
_cell_angle_alpha   102.82076524
_cell_angle_beta   89.97221962
_cell_angle_gamma   90.01686328
_symmetry_Int_Tables_number   1
_chemical_formula_structural   LiTiV2O6
_chemical_formula_sum   'Li2 Ti2 V4 O12'
_cell_volume   222.95655124
_cell_formula_units_Z   2
loop_
 _symmetry_equiv_pos_site_id
 _symmetry_equiv_pos_as_xyz
  1  'x, y, z'
loop_
 _atom_site_type_symbol
 _atom_site_label
 _atom_site_symmetry_multiplicity
 _atom_site_fract_x
 _atom_site_fract_y
 _atom_site_fract_z
 _atom_site_occupancy
  Li  Li0  1  0.498104  0.167091  0.834215  1
  Li  Li1  1  0.998106  0.667071  0.834111  1
  Ti  Ti2  1  0.000324  0.349451  0.631227  1
  Ti  Ti3  1  0.500281  0.849552  0.631305  1
  V  V4  1  0.000545  0.986918  0.026381  1
  V  V5  1  0.499870  0.162425  0.338087  1
  V  V6  1  0.500523  0.486863  0.026381  1
  V  V7  1  0.999856  0.662664  0.337907  1
  O  O8  1  0.000769  0.496760  0.795957  1
  O  O9  1  0.500782  0.996774  0.795941  1
  O  O10  1  0.500294  0.333841  0.433814  1
  O  O11  1  0.000438  0.833942  0.433854  1
  O  O12  1  0.999930  0.146632  0.097490  1
  O  O13  1  0.499932  0.646666  0.097493  1
  O  O14  1  0.500172  0.340603  0.873623  1
  O  O15  1  0.000110  0.840604  0.873697  1
  O  O16  1  0.999754  0.184579  0.573588  1
  O  O17  1  0.499804  0.684563  0.573359  1
  O  O18  1  0.500194  0.997582  0.233798  1
  O  O19  1  0.000209  0.497554  0.233731  1
