# generated using pymatgen
data_Ca2SnS4
_symmetry_space_group_name_H-M   'P 1'
_cell_length_a   8.01446300
_cell_length_b   8.01446300
_cell_length_c   11.54443600
_cell_angle_alpha   90.00000000
_cell_angle_beta   90.00000000
_cell_angle_gamma   90.00000000
_symmetry_Int_Tables_number   1
_chemical_formula_structural   Ca2SnS4
_chemical_formula_sum   'Ca8 Sn4 S16'
_cell_volume   741.51779369
_cell_formula_units_Z   4
loop_
 _symmetry_equiv_pos_site_id
 _symmetry_equiv_pos_as_xyz
  1  'x, y, z'
loop_
 _atom_site_type_symbol
 _atom_site_label
 _atom_site_symmetry_multiplicity
 _atom_site_fract_x
 _atom_site_fract_y
 _atom_site_fract_z
 _atom_site_occupancy
  Ca  Ca0  1  0.262984  0.000000  0.250000  1
  Ca  Ca1  1  0.737016  0.000000  0.750000  1
  Ca  Ca2  1  0.000000  0.262984  0.500000  1
  Ca  Ca3  1  0.000000  0.737016  0.000000  1
  Ca  Ca4  1  0.244185  0.244185  0.875000  1
  Ca  Ca5  1  0.755815  0.755815  0.375000  1
  Ca  Ca6  1  0.755815  0.244185  0.125000  1
  Ca  Ca7  1  0.244185  0.755815  0.625000  1
  Sn  Sn8  1  0.256337  0.500000  0.250000  1
  Sn  Sn9  1  0.743663  0.500000  0.750000  1
  Sn  Sn10  1  0.500000  0.256337  0.500000  1
  Sn  Sn11  1  0.500000  0.743663  0.000000  1
  S  S12  1  0.036716  0.269053  0.253662  1
  S  S13  1  0.963284  0.730947  0.753662  1
  S  S14  1  0.730947  0.036716  0.503662  1
  S  S15  1  0.269053  0.963284  0.003662  1
  S  S16  1  0.963284  0.269053  0.746338  1
  S  S17  1  0.036716  0.730947  0.246338  1
  S  S18  1  0.269053  0.036716  0.496338  1
  S  S19  1  0.730947  0.963284  0.996338  1
  S  S20  1  0.494512  0.271827  0.274773  1
  S  S21  1  0.505488  0.728173  0.774773  1
  S  S22  1  0.728173  0.494512  0.524773  1
  S  S23  1  0.271827  0.505488  0.024773  1
  S  S24  1  0.505488  0.271827  0.725227  1
  S  S25  1  0.494512  0.728173  0.225227  1
  S  S26  1  0.271827  0.494512  0.475227  1
  S  S27  1  0.728173  0.505488  0.975227  1
