# generated using pymatgen
data_NbBiO4
_symmetry_space_group_name_H-M   'P 1'
_cell_length_a   4.19743302
_cell_length_b   4.19743302
_cell_length_c   6.05526211
_cell_angle_alpha   73.85086327
_cell_angle_beta   73.85086327
_cell_angle_gamma   88.96162728
_symmetry_Int_Tables_number   1
_chemical_formula_structural   NbBiO4
_chemical_formula_sum   'Nb1 Bi1 O4'
_cell_volume   98.22799244
_cell_formula_units_Z   1
loop_
 _symmetry_equiv_pos_site_id
 _symmetry_equiv_pos_as_xyz
  1  'x, y, z'
loop_
 _atom_site_type_symbol
 _atom_site_label
 _atom_site_symmetry_multiplicity
 _atom_site_fract_x
 _atom_site_fract_y
 _atom_site_fract_z
 _atom_site_occupancy
  Nb  Nb0  1  0.053245  0.946755  0.000000  1
  Bi  Bi1  1  0.708124  0.291876  0.500000  1
  O  O2  1  0.996913  0.486697  0.049385  1
  O  O3  1  0.134724  0.164520  0.651750  1
  O  O4  1  0.835480  0.865276  0.348250  1
  O  O5  1  0.513303  0.003087  0.950615  1
