# generated using pymatgen
data_LiMnPO4
_symmetry_space_group_name_H-M   'P 1'
_cell_length_a   5.31091722
_cell_length_b   26.89759300
_cell_length_c   5.31091672
_cell_angle_alpha   90.00000000
_cell_angle_beta   60.00000042
_cell_angle_gamma   90.00000000
_symmetry_Int_Tables_number   1
_chemical_formula_structural   LiMnPO4
_chemical_formula_sum   'Li6 Mn6 P6 O24'
_cell_volume   657.02678415
_cell_formula_units_Z   6
loop_
 _symmetry_equiv_pos_site_id
 _symmetry_equiv_pos_as_xyz
  1  'x, y, z'
loop_
 _atom_site_type_symbol
 _atom_site_label
 _atom_site_symmetry_multiplicity
 _atom_site_fract_x
 _atom_site_fract_y
 _atom_site_fract_z
 _atom_site_occupancy
  Li  Li0  1  0.000000  0.083334  0.000000  1
  Li  Li1  1  0.000000  0.583334  0.000000  1
  Li  Li2  1  0.000000  0.250000  0.000000  1
  Li  Li3  1  0.000000  0.750000  0.000000  1
  Li  Li4  1  0.000000  0.416666  0.000000  1
  Li  Li5  1  0.000000  0.916666  0.000000  1
  Mn  Mn6  1  0.500000  0.833334  0.000000  1
  Mn  Mn7  1  0.000000  0.166666  0.500000  1
  Mn  Mn8  1  0.500000  0.500000  0.500000  1
  Mn  Mn9  1  0.500000  0.333334  0.000000  1
  Mn  Mn10  1  0.000000  0.666667  0.500000  1
  Mn  Mn11  1  0.500000  0.000000  0.500000  1
  P  P12  1  0.500000  0.083334  0.000000  1
  P  P13  1  0.500000  0.583334  0.000000  1
  P  P14  1  0.000000  0.416666  0.500000  1
  P  P15  1  0.000000  0.916666  0.500000  1
  P  P16  1  0.500000  0.250000  0.500000  1
  P  P17  1  0.500000  0.750000  0.500000  1
  O  O18  1  0.594813  0.051008  0.180535  1
  O  O19  1  0.594813  0.551008  0.180535  1
  O  O20  1  0.594813  0.282325  0.224652  1
  O  O21  1  0.594813  0.782325  0.224652  1
  O  O22  1  0.224652  0.115658  0.180535  1
  O  O23  1  0.224652  0.615658  0.180535  1
  O  O24  1  0.180535  0.384342  0.224652  1
  O  O25  1  0.180535  0.884342  0.224652  1
  O  O26  1  0.224652  0.217675  0.594813  1
  O  O27  1  0.224652  0.717675  0.594813  1
  O  O28  1  0.180535  0.448992  0.594813  1
  O  O29  1  0.180535  0.948992  0.594813  1
  O  O30  1  0.775348  0.217675  0.405187  1
  O  O31  1  0.775348  0.717675  0.405187  1
  O  O32  1  0.819465  0.448992  0.405187  1
  O  O33  1  0.819465  0.948992  0.405187  1
  O  O34  1  0.775348  0.115658  0.819465  1
  O  O35  1  0.775348  0.615658  0.819465  1
  O  O36  1  0.819465  0.384342  0.775348  1
  O  O37  1  0.819465  0.884342  0.775348  1
  O  O38  1  0.405187  0.051008  0.819465  1
  O  O39  1  0.405187  0.551008  0.819465  1
  O  O40  1  0.405187  0.282325  0.775348  1
  O  O41  1  0.405187  0.782325  0.775348  1
