# generated using pymatgen
data_PtF4
_symmetry_space_group_name_H-M   'P 1'
_cell_length_a   6.77567133
_cell_length_b   5.69048462
_cell_length_c   5.60424208
_cell_angle_alpha   73.72056985
_cell_angle_beta   53.72321925
_cell_angle_gamma   52.55621090
_symmetry_Int_Tables_number   1
_chemical_formula_structural   PtF4
_chemical_formula_sum   'Pt2 F8'
_cell_volume   137.23618378
_cell_formula_units_Z   2
loop_
 _symmetry_equiv_pos_site_id
 _symmetry_equiv_pos_as_xyz
  1  'x, y, z'
loop_
 _atom_site_type_symbol
 _atom_site_label
 _atom_site_symmetry_multiplicity
 _atom_site_fract_x
 _atom_site_fract_y
 _atom_site_fract_z
 _atom_site_occupancy
  Pt  Pt0  1  0.746691  0.253309  0.253309  1
  Pt  Pt1  1  0.996691  0.503309  0.503309  1
  F  F2  1  0.236537  0.081340  0.491497  1
  F  F3  1  0.190626  0.491497  0.081340  1
  F  F4  1  0.694351  0.488257  0.533596  1
  F  F5  1  0.283796  0.533596  0.488257  1
  F  F6  1  0.716404  0.966204  0.555649  1
  F  F7  1  0.761743  0.555649  0.966204  1
  F  F8  1  0.168660  0.013463  0.059374  1
  F  F9  1  0.758503  0.059374  0.013463  1
