# generated using pymatgen
data_Li2BeSiO4
_symmetry_space_group_name_H-M   'P 1'
_cell_length_a   4.98085600
_cell_length_b   4.74381600
_cell_length_c   7.75648252
_cell_angle_alpha   52.30149183
_cell_angle_beta   90.00000000
_cell_angle_gamma   90.00000000
_symmetry_Int_Tables_number   1
_chemical_formula_structural   Li2BeSiO4
_chemical_formula_sum   'Li4 Be2 Si2 O8'
_cell_volume   145.01221118
_cell_formula_units_Z   2
loop_
 _symmetry_equiv_pos_site_id
 _symmetry_equiv_pos_as_xyz
  1  'x, y, z'
loop_
 _atom_site_type_symbol
 _atom_site_label
 _atom_site_symmetry_multiplicity
 _atom_site_fract_x
 _atom_site_fract_y
 _atom_site_fract_z
 _atom_site_occupancy
  Li  Li0  1  0.174703  0.500974  0.500500  1
  Li  Li1  1  0.825297  0.500974  0.000500  1
  Li  Li2  1  0.335499  0.249011  0.252620  1
  Li  Li3  1  0.664501  0.249011  0.752620  1
  Be  Be4  1  0.319941  0.739652  0.751671  1
  Be  Be5  1  0.680059  0.739652  0.251671  1
  Si  Si6  1  0.179928  0.988345  0.002852  1
  Si  Si7  1  0.820072  0.988345  0.502852  1
  O  O8  1  0.200399  0.673907  0.971817  1
  O  O9  1  0.699876  0.362179  0.283133  1
  O  O10  1  0.861667  0.047769  0.033680  1
  O  O11  1  0.799601  0.673907  0.471817  1
  O  O12  1  0.138333  0.047769  0.533680  1
  O  O13  1  0.358978  0.863164  0.218727  1
  O  O14  1  0.641022  0.863164  0.718727  1
  O  O15  1  0.300124  0.362179  0.783133  1
