# generated using pymatgen
data_KYGeS4
_symmetry_space_group_name_H-M   'P 1'
_cell_length_a   6.71187800
_cell_length_b   6.54213100
_cell_length_c   8.70463875
_cell_angle_alpha   72.67936380
_cell_angle_beta   90.00000000
_cell_angle_gamma   90.00000000
_symmetry_Int_Tables_number   1
_chemical_formula_structural   KYGeS4
_chemical_formula_sum   'K2 Y2 Ge2 S8'
_cell_volume   364.88824410
_cell_formula_units_Z   2
loop_
 _symmetry_equiv_pos_site_id
 _symmetry_equiv_pos_as_xyz
  1  'x, y, z'
loop_
 _atom_site_type_symbol
 _atom_site_label
 _atom_site_symmetry_multiplicity
 _atom_site_fract_x
 _atom_site_fract_y
 _atom_site_fract_z
 _atom_site_occupancy
  K  K0  1  0.990871  0.733173  0.065379  1
  K  K1  1  0.490871  0.266827  0.934621  1
  Y  Y2  1  0.509110  0.228417  0.449097  1
  Y  Y3  1  0.009110  0.771583  0.550903  1
  Ge  Ge4  1  0.474144  0.774783  0.325483  1
  Ge  Ge5  1  0.974144  0.225217  0.674517  1
  S  S6  1  0.472139  0.569407  0.166304  1
  S  S7  1  0.236327  0.025031  0.280636  1
  S  S8  1  0.744915  0.982282  0.298570  1
  S  S9  1  0.905495  0.434034  0.426912  1
  S  S10  1  0.405495  0.565966  0.573088  1
  S  S11  1  0.244915  0.017718  0.701430  1
  S  S12  1  0.736327  0.974969  0.719364  1
  S  S13  1  0.972139  0.430593  0.833696  1
