# generated using pymatgen
data_K2SrCdSb2
_symmetry_space_group_name_H-M   'P 1'
_cell_length_a   4.99711900
_cell_length_b   8.32600600
_cell_length_c   9.97313900
_cell_angle_alpha   90.00000000
_cell_angle_beta   90.00000000
_cell_angle_gamma   90.00000000
_symmetry_Int_Tables_number   1
_chemical_formula_structural   K2SrCdSb2
_chemical_formula_sum   'K4 Sr2 Cd2 Sb4'
_cell_volume   414.94284785
_cell_formula_units_Z   2
loop_
 _symmetry_equiv_pos_site_id
 _symmetry_equiv_pos_as_xyz
  1  'x, y, z'
loop_
 _atom_site_type_symbol
 _atom_site_label
 _atom_site_symmetry_multiplicity
 _atom_site_fract_x
 _atom_site_fract_y
 _atom_site_fract_z
 _atom_site_occupancy
  K  K0  1  0.500000  0.024867  0.422269  1
  K  K1  1  0.000000  0.340920  0.337570  1
  K  K2  1  0.500000  0.524867  0.577731  1
  K  K3  1  0.000000  0.840920  0.662430  1
  Sr  Sr4  1  0.000000  0.496069  0.954097  1
  Sr  Sr5  1  0.000000  0.996069  0.045903  1
  Cd  Cd6  1  0.500000  0.151804  0.824433  1
  Cd  Cd7  1  0.500000  0.651804  0.175567  1
  Sb  Sb8  1  0.000000  0.249437  0.684902  1
  Sb  Sb9  1  0.500000  0.282423  0.109571  1
  Sb  Sb10  1  0.000000  0.749437  0.315098  1
  Sb  Sb11  1  0.500000  0.782423  0.890429  1
