# generated using pymatgen
data_LiMnPO4
_symmetry_space_group_name_H-M   'P 1'
_cell_length_a   5.22909800
_cell_length_b   6.32775000
_cell_length_c   11.19459500
_cell_angle_alpha   90.00000000
_cell_angle_beta   90.00000000
_cell_angle_gamma   90.00000000
_symmetry_Int_Tables_number   1
_chemical_formula_structural   LiMnPO4
_chemical_formula_sum   'Li4 Mn4 P4 O16'
_cell_volume   370.41151560
_cell_formula_units_Z   4
loop_
 _symmetry_equiv_pos_site_id
 _symmetry_equiv_pos_as_xyz
  1  'x, y, z'
loop_
 _atom_site_type_symbol
 _atom_site_label
 _atom_site_symmetry_multiplicity
 _atom_site_fract_x
 _atom_site_fract_y
 _atom_site_fract_z
 _atom_site_occupancy
  Li  Li0  1  0.250839  0.520289  0.167656  1
  Li  Li1  1  0.750839  0.020289  0.332344  1
  Li  Li2  1  0.250839  0.979711  0.667656  1
  Li  Li3  1  0.750839  0.479711  0.832344  1
  Mn  Mn4  1  0.746010  0.794233  0.080670  1
  Mn  Mn5  1  0.246010  0.294233  0.419330  1
  Mn  Mn6  1  0.746010  0.705767  0.580670  1
  Mn  Mn7  1  0.246010  0.205767  0.919330  1
  P  P8  1  0.249578  0.022414  0.179096  1
  P  P9  1  0.749578  0.522414  0.320904  1
  P  P10  1  0.249578  0.477586  0.679096  1
  P  P11  1  0.749578  0.977586  0.820904  1
  O  O12  1  0.185257  0.221169  0.100917  1
  O  O13  1  0.137731  0.821224  0.116767  1
  O  O14  1  0.632021  0.546593  0.193884  1
  O  O15  1  0.544414  0.000573  0.187446  1
  O  O16  1  0.044414  0.500573  0.312554  1
  O  O17  1  0.132021  0.046593  0.306116  1
  O  O18  1  0.637731  0.321224  0.383233  1
  O  O19  1  0.685257  0.721169  0.399083  1
  O  O20  1  0.185257  0.278831  0.600917  1
  O  O21  1  0.137731  0.678776  0.616767  1
  O  O22  1  0.632021  0.953407  0.693884  1
  O  O23  1  0.544414  0.499427  0.687446  1
  O  O24  1  0.044414  0.999427  0.812554  1
  O  O25  1  0.132021  0.453407  0.806116  1
  O  O26  1  0.637731  0.178776  0.883233  1
  O  O27  1  0.685257  0.778831  0.899083  1
