# generated using pymatgen
data_Li5CoOF5
_symmetry_space_group_name_H-M   'P 1'
_cell_length_a   5.54300206
_cell_length_b   6.39443900
_cell_length_c   14.98298916
_cell_angle_alpha   90.00117120
_cell_angle_beta   89.98307439
_cell_angle_gamma   89.99842600
_symmetry_Int_Tables_number   1
_chemical_formula_structural   Li5CoOF5
_chemical_formula_sum   'Li20 Co4 O4 F20'
_cell_volume   531.06286626
_cell_formula_units_Z   4
loop_
 _symmetry_equiv_pos_site_id
 _symmetry_equiv_pos_as_xyz
  1  'x, y, z'
loop_
 _atom_site_type_symbol
 _atom_site_label
 _atom_site_symmetry_multiplicity
 _atom_site_fract_x
 _atom_site_fract_y
 _atom_site_fract_z
 _atom_site_occupancy
  Li  Li0  1  0.333398  0.500009  0.993836  1
  Li  Li1  1  0.833400  0.749979  0.993837  1
  Li  Li2  1  0.333398  0.000007  0.993837  1
  Li  Li3  1  0.833399  0.249979  0.993836  1
  Li  Li4  1  0.333409  0.499988  0.338589  1
  Li  Li5  1  0.833406  0.750037  0.338591  1
  Li  Li6  1  0.333405  0.999997  0.338590  1
  Li  Li7  1  0.833410  0.250047  0.338589  1
  Li  Li8  1  0.333388  0.499985  0.666081  1
  Li  Li9  1  0.833388  0.749985  0.666081  1
  Li  Li10  1  0.333388  0.999985  0.666081  1
  Li  Li11  1  0.833388  0.249985  0.666081  1
  Li  Li12  1  0.166642  0.250014  0.502276  1
  Li  Li13  1  0.666642  0.500015  0.502276  1
  Li  Li14  1  0.166642  0.750013  0.502278  1
  Li  Li15  1  0.666642  0.000016  0.502278  1
  Li  Li16  1  0.166630  0.250026  0.829674  1
  Li  Li17  1  0.666630  0.500026  0.829674  1
  Li  Li18  1  0.166630  0.750026  0.829674  1
  Li  Li19  1  0.666630  0.000026  0.829674  1
  Co  Co20  1  0.167257  0.248960  0.160482  1
  Co  Co21  1  0.667248  0.501148  0.160481  1
  Co  Co22  1  0.167252  0.748956  0.160499  1
  Co  Co23  1  0.667245  0.001147  0.160498  1
  O  O24  1  0.332809  0.499815  0.126218  1
  O  O25  1  0.832804  0.750268  0.126203  1
  O  O26  1  0.332807  0.999813  0.126205  1
  O  O27  1  0.832810  0.250260  0.126221  1
  F  F28  1  0.333346  0.500014  0.464920  1
  F  F29  1  0.833348  0.750024  0.464920  1
  F  F30  1  0.333349  0.000013  0.464920  1
  F  F31  1  0.833345  0.250022  0.464920  1
  F  F32  1  0.333320  0.500001  0.792367  1
  F  F33  1  0.833319  0.750000  0.792367  1
  F  F34  1  0.333320  0.000002  0.792367  1
  F  F35  1  0.833319  0.250001  0.792367  1
  F  F36  1  0.166707  0.249818  0.304057  1
  F  F37  1  0.666703  0.500201  0.304057  1
  F  F38  1  0.166698  0.749834  0.304041  1
  F  F39  1  0.666701  0.000179  0.304044  1
  F  F40  1  0.166707  0.249992  0.955886  1
  F  F41  1  0.666710  0.499974  0.955887  1
  F  F42  1  0.166710  0.749988  0.955886  1
  F  F43  1  0.666710  0.999980  0.955887  1
  F  F44  1  0.166699  0.250011  0.628649  1
  F  F45  1  0.666698  0.500011  0.628649  1
  F  F46  1  0.166699  0.750010  0.628650  1
  F  F47  1  0.666697  0.000012  0.628650  1
