# generated using pymatgen
data_Li3MnV(P2O7)2
_symmetry_space_group_name_H-M   'P 1'
_cell_length_a   7.23680024
_cell_length_b   9.79590371
_cell_length_c   9.76933262
_cell_angle_alpha   62.11008017
_cell_angle_beta   101.84729866
_cell_angle_gamma   79.43603611
_symmetry_Int_Tables_number   1
_chemical_formula_structural   Li3MnV(P2O7)2
_chemical_formula_sum   'Li6 Mn2 V2 P8 O28'
_cell_volume   566.97315563
_cell_formula_units_Z   2
loop_
 _symmetry_equiv_pos_site_id
 _symmetry_equiv_pos_as_xyz
  1  'x, y, z'
loop_
 _atom_site_type_symbol
 _atom_site_label
 _atom_site_symmetry_multiplicity
 _atom_site_fract_x
 _atom_site_fract_y
 _atom_site_fract_z
 _atom_site_occupancy
  Li  Li0  1  0.337858  0.167222  0.684283  1
  Li  Li1  1  0.338965  0.666897  0.184583  1
  Li  Li2  1  0.904763  0.492127  0.669620  1
  Li  Li3  1  0.904062  0.991280  0.169854  1
  Li  Li4  1  0.657033  0.440602  0.916503  1
  Li  Li5  1  0.656628  0.940931  0.415737  1
  Mn  Mn6  1  0.729995  0.225443  0.758257  1
  Mn  Mn7  1  0.730137  0.725566  0.258229  1
  V  V8  1  0.276197  0.006915  0.497540  1
  V  V9  1  0.275214  0.506866  0.997962  1
  P  P10  1  0.475535  0.659266  0.526609  1
  P  P11  1  0.474535  0.159444  0.026385  1
  P  P12  1  0.919557  0.819389  0.962251  1
  P  P13  1  0.919358  0.319336  0.462479  1
  P  P14  1  0.088358  0.709432  0.587949  1
  P  P15  1  0.087827  0.208484  0.088199  1
  P  P16  1  0.521971  0.775813  0.902655  1
  P  P17  1  0.521772  0.275674  0.403318  1
  O  O18  1  0.121891  0.070298  0.264674  1
  O  O19  1  0.120915  0.570976  0.763827  1
  O  O20  1  0.117358  0.203590  0.490613  1
  O  O21  1  0.117846  0.703475  0.990919  1
  O  O22  1  0.495570  0.669075  0.370712  1
  O  O23  1  0.494314  0.170150  0.870106  1
  O  O24  1  0.479901  0.818576  0.521935  1
  O  O25  1  0.478668  0.318320  0.022728  1
  O  O26  1  0.415655  0.936258  0.734548  1
  O  O27  1  0.414983  0.436102  0.235477  1
  O  O28  1  0.094331  0.870893  0.568845  1
  O  O29  1  0.092573  0.370775  0.067518  1
  O  O30  1  0.256454  0.643465  0.526724  1
  O  O31  1  0.255741  0.142845  0.026738  1
  O  O32  1  0.757961  0.732737  0.927477  1
  O  O33  1  0.757617  0.232520  0.428308  1
  O  O34  1  0.925998  0.817760  0.122055  1
  O  O35  1  0.926062  0.318251  0.622109  1
  O  O36  1  0.631026  0.510208  0.684953  1
  O  O37  1  0.630261  0.010367  0.184496  1
  O  O38  1  0.490268  0.793269  0.043823  1
  O  O39  1  0.490057  0.292680  0.544735  1
  O  O40  1  0.475152  0.626905  0.906990  1
  O  O41  1  0.475296  0.126738  0.407273  1
  O  O42  1  0.889012  0.221885  0.980792  1
  O  O43  1  0.889524  0.724333  0.479012  1
  O  O44  1  0.861730  0.489117  0.315077  1
  O  O45  1  0.863031  0.989132  0.815121  1
