# generated using pymatgen
data_SrTaNO2
_symmetry_space_group_name_H-M   'P 1'
_cell_length_a   5.73540529
_cell_length_b   5.73540529
_cell_length_c   8.17597519
_cell_angle_alpha   89.95063945
_cell_angle_beta   89.95063945
_cell_angle_gamma   91.14223473
_symmetry_Int_Tables_number   1
_chemical_formula_structural   SrTaNO2
_chemical_formula_sum   'Sr4 Ta4 N4 O8'
_cell_volume   268.89402626
_cell_formula_units_Z   4
loop_
 _symmetry_equiv_pos_site_id
 _symmetry_equiv_pos_as_xyz
  1  'x, y, z'
loop_
 _atom_site_type_symbol
 _atom_site_label
 _atom_site_symmetry_multiplicity
 _atom_site_fract_x
 _atom_site_fract_y
 _atom_site_fract_z
 _atom_site_occupancy
  Sr  Sr0  1  0.001516  0.998484  0.500000  1
  Sr  Sr1  1  0.509564  0.490436  0.500000  1
  Sr  Sr2  1  0.499663  0.500337  0.000000  1
  Sr  Sr3  1  0.993828  0.006172  0.000000  1
  Ta  Ta4  1  0.489362  0.006000  0.243132  1
  Ta  Ta5  1  0.507566  0.990147  0.755224  1
  Ta  Ta6  1  0.994000  0.510638  0.756868  1
  Ta  Ta7  1  0.009853  0.492434  0.244776  1
  N  N8  1  0.770320  0.770966  0.745870  1
  N  N9  1  0.476845  0.974845  0.000187  1
  N  N10  1  0.025155  0.523155  0.999813  1
  N  N11  1  0.229034  0.229680  0.254130  1
  O  O12  1  0.776738  0.777330  0.258991  1
  O  O13  1  0.969740  0.474607  0.499624  1
  O  O14  1  0.272772  0.724551  0.717334  1
  O  O15  1  0.726623  0.276093  0.231518  1
  O  O16  1  0.275449  0.727228  0.282666  1
  O  O17  1  0.723907  0.273377  0.768482  1
  O  O18  1  0.525393  0.030260  0.500376  1
  O  O19  1  0.222670  0.223262  0.741009  1
