# generated using pymatgen
data_LiV2CrO6
_symmetry_space_group_name_H-M   'P 1'
_cell_length_a   5.46424309
_cell_length_b   5.46601160
_cell_length_c   5.46578323
_cell_angle_alpha   54.88151304
_cell_angle_beta   54.89930550
_cell_angle_gamma   54.88097638
_symmetry_Int_Tables_number   1
_chemical_formula_structural   LiV2CrO6
_chemical_formula_sum   'Li1 V2 Cr1 O6'
_cell_volume   101.69688695
_cell_formula_units_Z   1
loop_
 _symmetry_equiv_pos_site_id
 _symmetry_equiv_pos_as_xyz
  1  'x, y, z'
loop_
 _atom_site_type_symbol
 _atom_site_label
 _atom_site_symmetry_multiplicity
 _atom_site_fract_x
 _atom_site_fract_y
 _atom_site_fract_z
 _atom_site_occupancy
  Li  Li0  1  0.289733  0.289723  0.289754  1
  V  V1  1  0.002829  0.002889  0.002583  1
  V  V2  1  0.497023  0.497129  0.496949  1
  Cr  Cr3  1  0.800992  0.801121  0.800921  1
  O  O4  1  0.104164  0.717562  0.396711  1
  O  O5  1  0.396728  0.104138  0.717446  1
  O  O6  1  0.717490  0.396745  0.104174  1
  O  O7  1  0.224799  0.614334  0.852489  1
  O  O8  1  0.614494  0.852548  0.224618  1
  O  O9  1  0.852549  0.224610  0.614354  1
