# generated using pymatgen
data_TiNiO3
_symmetry_space_group_name_H-M   'P 1'
_cell_length_a   5.07085300
_cell_length_b   5.50371834
_cell_length_c   7.48523931
_cell_angle_alpha   96.38372257
_cell_angle_beta   89.99995936
_cell_angle_gamma   89.99997757
_symmetry_Int_Tables_number   1
_chemical_formula_structural   TiNiO3
_chemical_formula_sum   'Ti4 Ni4 O12'
_cell_volume   207.60686230
_cell_formula_units_Z   4
loop_
 _symmetry_equiv_pos_site_id
 _symmetry_equiv_pos_as_xyz
  1  'x, y, z'
loop_
 _atom_site_type_symbol
 _atom_site_label
 _atom_site_symmetry_multiplicity
 _atom_site_fract_x
 _atom_site_fract_y
 _atom_site_fract_z
 _atom_site_occupancy
  Ti  Ti0  1  0.000036  0.292088  0.853998  1
  Ti  Ti1  1  0.500033  0.792094  0.353991  1
  Ti  Ti2  1  0.499968  0.792183  0.853952  1
  Ti  Ti3  1  0.999972  0.292189  0.353944  1
  Ni  Ni4  1  0.000031  0.709169  0.645349  1
  Ni  Ni5  1  0.499941  0.209192  0.645360  1
  Ni  Ni6  1  0.500036  0.209147  0.145367  1
  Ni  Ni7  1  0.999953  0.709231  0.145331  1
  O  O8  1  0.136025  0.346159  0.085491  1
  O  O9  1  0.636020  0.846157  0.585486  1
  O  O10  1  0.309418  0.519505  0.758921  1
  O  O11  1  0.809415  0.019498  0.258912  1
  O  O12  1  0.363959  0.846162  0.085533  1
  O  O13  1  0.863964  0.346159  0.585528  1
  O  O14  1  0.673274  0.155606  0.894940  1
  O  O15  1  0.173275  0.655608  0.394940  1
  O  O16  1  0.690556  0.519549  0.258923  1
  O  O17  1  0.190553  0.019556  0.758932  1
  O  O18  1  0.826785  0.655575  0.894949  1
  O  O19  1  0.326784  0.155577  0.394949  1
