# generated using pymatgen
data_K3SbSe4
_symmetry_space_group_name_H-M   'P 1'
_cell_length_a   8.18526331
_cell_length_b   8.18526331
_cell_length_c   8.18526330
_cell_angle_alpha   92.00302022
_cell_angle_beta   92.00302022
_cell_angle_gamma   92.00302963
_symmetry_Int_Tables_number   1
_chemical_formula_structural   K3SbSe4
_chemical_formula_sum   'K6 Sb2 Se8'
_cell_volume   547.37133306
_cell_formula_units_Z   2
loop_
 _symmetry_equiv_pos_site_id
 _symmetry_equiv_pos_as_xyz
  1  'x, y, z'
loop_
 _atom_site_type_symbol
 _atom_site_label
 _atom_site_symmetry_multiplicity
 _atom_site_fract_x
 _atom_site_fract_y
 _atom_site_fract_z
 _atom_site_occupancy
  K  K0  1  0.474398  0.999291  0.544940  1
  K  K1  1  0.544940  0.474398  0.999291  1
  K  K2  1  0.999291  0.544940  0.474398  1
  K  K3  1  0.044940  0.499291  0.974398  1
  K  K4  1  0.974398  0.044940  0.499291  1
  K  K5  1  0.499291  0.974398  0.044940  1
  Sb  Sb6  1  0.998306  0.998306  0.998306  1
  Sb  Sb7  1  0.498306  0.498306  0.498306  1
  Se  Se8  1  0.170721  0.840894  0.800786  1
  Se  Se9  1  0.682164  0.682164  0.682164  1
  Se  Se10  1  0.300786  0.340894  0.670721  1
  Se  Se11  1  0.800786  0.170721  0.840894  1
  Se  Se12  1  0.840894  0.800786  0.170721  1
  Se  Se13  1  0.340894  0.670721  0.300786  1
  Se  Se14  1  0.670721  0.300786  0.340894  1
  Se  Se15  1  0.182164  0.182164  0.182164  1
