# generated using pymatgen
data_OF3
_symmetry_space_group_name_H-M   'P 1'
_cell_length_a   2.93380700
_cell_length_b   6.30790824
_cell_length_c   6.35404212
_cell_angle_alpha   60.82158243
_cell_angle_beta   89.06033677
_cell_angle_gamma   89.17794525
_symmetry_Int_Tables_number   1
_chemical_formula_structural   OF3
_chemical_formula_sum   'O2 F6'
_cell_volume   102.65118285
_cell_formula_units_Z   2
loop_
 _symmetry_equiv_pos_site_id
 _symmetry_equiv_pos_as_xyz
  1  'x, y, z'
loop_
 _atom_site_type_symbol
 _atom_site_label
 _atom_site_symmetry_multiplicity
 _atom_site_fract_x
 _atom_site_fract_y
 _atom_site_fract_z
 _atom_site_occupancy
  O  O0  1  0.006678  0.351747  0.320991  1
  O  O1  1  0.940498  0.572987  0.744295  1
  F  F2  1  0.626092  0.204649  0.167509  1
  F  F3  1  0.795458  0.233002  0.551490  1
  F  F4  1  0.870850  0.600681  0.218679  1
  F  F5  1  0.333329  0.838228  0.746230  1
  F  F6  1  0.246428  0.833740  0.443915  1
  F  F7  1  0.180671  0.364967  0.806892  1
