# generated using pymatgen
data_CsSrSiHO4
_symmetry_space_group_name_H-M   'P 1'
_cell_length_a   8.00937200
_cell_length_b   5.99999800
_cell_length_c   6.06102623
_cell_angle_alpha   60.07306493
_cell_angle_beta   90.00000000
_cell_angle_gamma   90.00000000
_symmetry_Int_Tables_number   1
_chemical_formula_structural   CsSrSiHO4
_chemical_formula_sum   'Cs2 Sr2 Si2 H2 O8'
_cell_volume   252.43271885
_cell_formula_units_Z   2
loop_
 _symmetry_equiv_pos_site_id
 _symmetry_equiv_pos_as_xyz
  1  'x, y, z'
loop_
 _atom_site_type_symbol
 _atom_site_label
 _atom_site_symmetry_multiplicity
 _atom_site_fract_x
 _atom_site_fract_y
 _atom_site_fract_z
 _atom_site_occupancy
  Cs  Cs0  1  0.228915  0.624532  0.650568  1
  Cs  Cs1  1  0.728915  0.375468  0.349432  1
  Sr  Sr2  1  0.483524  0.003614  0.986118  1
  Sr  Sr3  1  0.983524  0.996386  0.013882  1
  Si  Si4  1  0.246501  0.297354  0.322159  1
  Si  Si5  1  0.746501  0.702646  0.677841  1
  H  H6  1  0.006460  0.048713  0.492042  1
  H  H7  1  0.506460  0.951287  0.507958  1
  O  O8  1  0.241049  0.612827  0.156906  1
  O  O9  1  0.741049  0.387173  0.843094  1
  O  O10  1  0.241411  0.163638  0.140880  1
  O  O11  1  0.741411  0.836362  0.859120  1
  O  O12  1  0.398461  0.176591  0.533552  1
  O  O13  1  0.898461  0.823409  0.466448  1
  O  O14  1  0.070679  0.182145  0.515305  1
  O  O15  1  0.570679  0.817855  0.484695  1
