# generated using pymatgen
data_NaYP2O7
_symmetry_space_group_name_H-M   'P 1'
_cell_length_a   5.44081200
_cell_length_b   7.16530500
_cell_length_c   8.79676183
_cell_angle_alpha   69.58876483
_cell_angle_beta   90.00000000
_cell_angle_gamma   90.00000000
_symmetry_Int_Tables_number   1
_chemical_formula_structural   NaYP2O7
_chemical_formula_sum   'Na2 Y2 P4 O14'
_cell_volume   321.41032667
_cell_formula_units_Z   2
loop_
 _symmetry_equiv_pos_site_id
 _symmetry_equiv_pos_as_xyz
  1  'x, y, z'
loop_
 _atom_site_type_symbol
 _atom_site_label
 _atom_site_symmetry_multiplicity
 _atom_site_fract_x
 _atom_site_fract_y
 _atom_site_fract_z
 _atom_site_occupancy
  Na  Na0  1  0.512287  0.165350  0.944286  1
  Na  Na1  1  0.012287  0.834650  0.055714  1
  Y  Y2  1  0.507068  0.789838  0.752658  1
  Y  Y3  1  0.007068  0.210162  0.247342  1
  P  P4  1  0.987717  0.122082  0.684251  1
  P  P5  1  0.487717  0.877918  0.315749  1
  P  P6  1  0.029066  0.445036  0.812973  1
  P  P7  1  0.529066  0.554964  0.187027  1
  O  O8  1  0.227580  0.026850  0.768223  1
  O  O9  1  0.727580  0.973150  0.231777  1
  O  O10  1  0.866240  0.628940  0.770078  1
  O  O11  1  0.366240  0.371060  0.229922  1
  O  O12  1  0.766496  0.022364  0.791331  1
  O  O13  1  0.266496  0.977636  0.208669  1
  O  O14  1  0.985229  0.353948  0.669616  1
  O  O15  1  0.485229  0.646052  0.330384  1
  O  O16  1  0.804353  0.506335  0.189484  1
  O  O17  1  0.304353  0.493665  0.810516  1
  O  O18  1  0.454397  0.719227  0.028111  1
  O  O19  1  0.954397  0.280773  0.971889  1
  O  O20  1  0.461867  0.873112  0.488792  1
  O  O21  1  0.961867  0.126888  0.511208  1
