# generated using pymatgen
data_H3F2
_symmetry_space_group_name_H-M   'P 1'
_cell_length_a   4.52358600
_cell_length_b   4.58672557
_cell_length_c   5.25883163
_cell_angle_alpha   72.88115361
_cell_angle_beta   72.82711788
_cell_angle_gamma   72.31147579
_symmetry_Int_Tables_number   1
_chemical_formula_structural   H3F2
_chemical_formula_sum   'H6 F4'
_cell_volume   96.77696448
_cell_formula_units_Z   2
loop_
 _symmetry_equiv_pos_site_id
 _symmetry_equiv_pos_as_xyz
  1  'x, y, z'
loop_
 _atom_site_type_symbol
 _atom_site_label
 _atom_site_symmetry_multiplicity
 _atom_site_fract_x
 _atom_site_fract_y
 _atom_site_fract_z
 _atom_site_occupancy
  H  H0  1  0.772466  0.325944  0.203084  1
  H  H1  1  0.755460  0.810373  0.259591  1
  H  H2  1  0.275147  0.708711  0.446321  1
  H  H3  1  0.302592  0.721678  0.575149  1
  H  H4  1  0.188237  0.245065  0.735979  1
  H  H5  1  0.674627  0.223836  0.792146  1
  F  F6  1  0.780473  0.542703  0.113035  1
  F  F7  1  0.770714  0.971893  0.337738  1
  F  F8  1  0.022815  0.244764  0.651597  1
  F  F9  1  0.457482  0.205027  0.885352  1
