# generated using pymatgen
data_Sr2Si5N8
_symmetry_space_group_name_H-M   'P 1'
_cell_length_a   5.74893300
_cell_length_b   6.88102700
_cell_length_c   9.40482000
_cell_angle_alpha   90.00000000
_cell_angle_beta   90.00000000
_cell_angle_gamma   90.00000000
_symmetry_Int_Tables_number   1
_chemical_formula_structural   Sr2Si5N8
_chemical_formula_sum   'Sr4 Si10 N16'
_cell_volume   372.04116630
_cell_formula_units_Z   2
loop_
 _symmetry_equiv_pos_site_id
 _symmetry_equiv_pos_as_xyz
  1  'x, y, z'
loop_
 _atom_site_type_symbol
 _atom_site_label
 _atom_site_symmetry_multiplicity
 _atom_site_fract_x
 _atom_site_fract_y
 _atom_site_fract_z
 _atom_site_occupancy
  Sr  Sr0  1  0.500000  0.115883  0.868275  1
  Sr  Sr1  1  0.000000  0.884117  0.368275  1
  Sr  Sr2  1  0.500000  0.126543  0.499773  1
  Sr  Sr3  1  0.000000  0.873457  0.999773  1
  Si  Si4  1  0.500000  0.598207  0.401891  1
  Si  Si5  1  0.000000  0.401793  0.901891  1
  Si  Si6  1  0.500000  0.580208  0.961125  1
  Si  Si7  1  0.000000  0.419792  0.461125  1
  Si  Si8  1  0.500000  0.945109  0.177535  1
  Si  Si9  1  0.000000  0.054891  0.677535  1
  Si  Si10  1  0.751744  0.332310  0.182897  1
  Si  Si11  1  0.748256  0.667690  0.682897  1
  Si  Si12  1  0.248256  0.332310  0.182897  1
  Si  Si13  1  0.251744  0.667690  0.682897  1
  N  N14  1  0.500000  0.574982  0.771802  1
  N  N15  1  0.000000  0.425018  0.271802  1
  N  N16  1  0.500000  0.825774  0.338419  1
  N  N17  1  0.000000  0.174226  0.838419  1
  N  N18  1  0.500000  0.413675  0.273272  1
  N  N19  1  0.000000  0.586325  0.773272  1
  N  N20  1  0.749412  0.556162  0.510979  1
  N  N21  1  0.750588  0.443838  0.010979  1
  N  N22  1  0.250588  0.556162  0.510979  1
  N  N23  1  0.249412  0.443838  0.010979  1
  N  N24  1  0.747806  0.086476  0.171789  1
  N  N25  1  0.752194  0.913524  0.671789  1
  N  N26  1  0.252194  0.086476  0.171789  1
  N  N27  1  0.247806  0.913524  0.671789  1
  N  N28  1  0.000000  0.190290  0.521928  1
  N  N29  1  0.500000  0.809710  0.021928  1
