# generated using pymatgen
data_Re2S2O13
_symmetry_space_group_name_H-M   'P 1'
_cell_length_a   6.05887100
_cell_length_b   8.46039500
_cell_length_c   9.78972700
_cell_angle_alpha   90.00000000
_cell_angle_beta   90.00000000
_cell_angle_gamma   90.00000000
_symmetry_Int_Tables_number   1
_chemical_formula_structural   Re2S2O13
_chemical_formula_sum   'Re4 S4 O26'
_cell_volume   501.82573224
_cell_formula_units_Z   2
loop_
 _symmetry_equiv_pos_site_id
 _symmetry_equiv_pos_as_xyz
  1  'x, y, z'
loop_
 _atom_site_type_symbol
 _atom_site_label
 _atom_site_symmetry_multiplicity
 _atom_site_fract_x
 _atom_site_fract_y
 _atom_site_fract_z
 _atom_site_occupancy
  Re  Re0  1  0.964263  0.185803  0.599494  1
  Re  Re1  1  0.964263  0.814197  0.400506  1
  Re  Re2  1  0.964263  0.685803  0.900506  1
  Re  Re3  1  0.964263  0.314197  0.099494  1
  S  S4  1  0.290328  0.372729  0.816252  1
  S  S5  1  0.290328  0.627271  0.183748  1
  S  S6  1  0.290328  0.872729  0.683748  1
  S  S7  1  0.290328  0.127271  0.316252  1
  O  O8  1  0.154772  0.350291  0.678722  1
  O  O9  1  0.154772  0.649709  0.321278  1
  O  O10  1  0.154772  0.850291  0.821278  1
  O  O11  1  0.154772  0.149709  0.178722  1
  O  O12  1  0.173245  0.272302  0.919216  1
  O  O13  1  0.173245  0.727698  0.080784  1
  O  O14  1  0.173245  0.772302  0.580784  1
  O  O15  1  0.173245  0.227698  0.419216  1
  O  O16  1  0.259322  0.544123  0.848727  1
  O  O17  1  0.259322  0.455877  0.151273  1
  O  O18  1  0.259322  0.044123  0.651273  1
  O  O19  1  0.259322  0.955877  0.348727  1
  O  O20  1  0.515980  0.333705  0.795363  1
  O  O21  1  0.515980  0.666295  0.204637  1
  O  O22  1  0.515980  0.833705  0.704637  1
  O  O23  1  0.515980  0.166295  0.295363  1
  O  O24  1  0.890242  0.000000  0.500000  1
  O  O25  1  0.890242  0.500000  0.000000  1
  O  O26  1  0.849422  0.123547  0.749109  1
  O  O27  1  0.849422  0.876453  0.250891  1
  O  O28  1  0.849422  0.623547  0.750891  1
  O  O29  1  0.849422  0.376453  0.249109  1
  O  O30  1  0.772647  0.313185  0.533754  1
  O  O31  1  0.772647  0.686815  0.466246  1
  O  O32  1  0.772647  0.813185  0.966246  1
  O  O33  1  0.772647  0.186815  0.033754  1
