# generated using pymatgen
data_Mg(SbO2)4
_symmetry_space_group_name_H-M   'P 1'
_cell_length_a   8.94474457
_cell_length_b   8.94474457
_cell_length_c   9.78757749
_cell_angle_alpha   64.00139844
_cell_angle_beta   64.00139844
_cell_angle_gamma   20.45550893
_symmetry_Int_Tables_number   1
_chemical_formula_structural   Mg(SbO2)4
_chemical_formula_sum   'Mg1 Sb4 O8'
_cell_volume   245.02519666
_cell_formula_units_Z   1
loop_
 _symmetry_equiv_pos_site_id
 _symmetry_equiv_pos_as_xyz
  1  'x, y, z'
loop_
 _atom_site_type_symbol
 _atom_site_label
 _atom_site_symmetry_multiplicity
 _atom_site_fract_x
 _atom_site_fract_y
 _atom_site_fract_z
 _atom_site_occupancy
  Mg  Mg0  1  0.303924  0.303924  0.208528  1
  Sb  Sb1  1  0.667310  0.667310  0.527495  1
  Sb  Sb2  1  0.108823  0.108823  0.213252  1
  Sb  Sb3  1  0.849117  0.849117  0.867462  1
  Sb  Sb4  1  0.348326  0.348326  0.510059  1
  O  O5  1  0.845158  0.845158  0.648627  1
  O  O6  1  0.431094  0.431094  0.786599  1
  O  O7  1  0.535405  0.535405  0.325337  1
  O  O8  1  0.172695  0.172695  0.339901  1
  O  O9  1  0.215854  0.215854  0.615277  1
  O  O10  1  0.838681  0.838681  0.074437  1
  O  O11  1  0.792099  0.792099  0.373063  1
  O  O12  1  0.266174  0.266174  0.918753  1
