# generated using pymatgen
data_Mg2SnWO6
_symmetry_space_group_name_H-M   'P 1'
_cell_length_a   5.24168700
_cell_length_b   5.70629585
_cell_length_c   5.71593818
_cell_angle_alpha   73.23548979
_cell_angle_beta   66.73329031
_cell_angle_gamma   67.50776918
_symmetry_Int_Tables_number   1
_chemical_formula_structural   Mg2SnWO6
_chemical_formula_sum   'Mg2 Sn1 W1 O6'
_cell_volume   143.20410630
_cell_formula_units_Z   1
loop_
 _symmetry_equiv_pos_site_id
 _symmetry_equiv_pos_as_xyz
  1  'x, y, z'
loop_
 _atom_site_type_symbol
 _atom_site_label
 _atom_site_symmetry_multiplicity
 _atom_site_fract_x
 _atom_site_fract_y
 _atom_site_fract_z
 _atom_site_occupancy
  Mg  Mg0  1  0.732816  0.943727  0.668284  1
  Mg  Mg1  1  0.259093  0.351507  0.033384  1
  Sn  Sn2  1  0.519041  0.530395  0.435856  1
  W  W3  1  0.999777  0.941545  0.056747  1
  O  O4  1  0.958436  0.161094  0.298045  1
  O  O5  1  0.014776  0.696905  0.863638  1
  O  O6  1  0.288351  0.089928  0.817984  1
  O  O7  1  0.696222  0.165442  0.929066  1
  O  O8  1  0.321770  0.632628  0.148377  1
  O  O9  1  0.729384  0.802790  0.383795  1
