# generated using pymatgen
data_Zn2Sn3O8
_symmetry_space_group_name_H-M   'P 1'
_cell_length_a   6.33491001
_cell_length_b   6.33491001
_cell_length_c   9.50612100
_cell_angle_alpha   90.00000000
_cell_angle_beta   90.00000000
_cell_angle_gamma   120.00000008
_symmetry_Int_Tables_number   1
_chemical_formula_structural   Zn2Sn3O8
_chemical_formula_sum   'Zn4 Sn6 O16'
_cell_volume   330.38085206
_cell_formula_units_Z   2
loop_
 _symmetry_equiv_pos_site_id
 _symmetry_equiv_pos_as_xyz
  1  'x, y, z'
loop_
 _atom_site_type_symbol
 _atom_site_label
 _atom_site_symmetry_multiplicity
 _atom_site_fract_x
 _atom_site_fract_y
 _atom_site_fract_z
 _atom_site_occupancy
  Zn  Zn0  1  0.666667  0.333333  0.040117  1
  Zn  Zn1  1  0.333333  0.666667  0.540117  1
  Zn  Zn2  1  0.666667  0.333333  0.404554  1
  Zn  Zn3  1  0.333333  0.666667  0.904554  1
  Sn  Sn4  1  0.671847  0.835923  0.244672  1
  Sn  Sn5  1  0.835923  0.164077  0.744672  1
  Sn  Sn6  1  0.164077  0.328153  0.244672  1
  Sn  Sn7  1  0.835923  0.671847  0.744672  1
  Sn  Sn8  1  0.328153  0.164077  0.744672  1
  Sn  Sn9  1  0.164077  0.835923  0.244672  1
  O  O10  1  0.833521  0.166479  0.139563  1
  O  O11  1  0.667043  0.833521  0.639563  1
  O  O12  1  0.166479  0.332957  0.639563  1
  O  O13  1  0.833521  0.667043  0.139563  1
  O  O14  1  0.332957  0.166479  0.139563  1
  O  O15  1  0.166479  0.833521  0.639563  1
  O  O16  1  0.516384  0.483616  0.870455  1
  O  O17  1  0.032767  0.516384  0.370455  1
  O  O18  1  0.483616  0.967233  0.370455  1
  O  O19  1  0.516384  0.032767  0.870455  1
  O  O20  1  0.000000  0.000000  0.358018  1
  O  O21  1  0.000000  0.000000  0.858018  1
  O  O22  1  0.333333  0.666667  0.126745  1
  O  O23  1  0.967233  0.483616  0.870455  1
  O  O24  1  0.483616  0.516384  0.370455  1
  O  O25  1  0.666667  0.333333  0.626745  1
