# generated using pymatgen
data_MgTa2O6
_symmetry_space_group_name_H-M   'P 1'
_cell_length_a   5.22955000
_cell_length_b   5.51099600
_cell_length_c   7.60865200
_cell_angle_alpha   90.00000000
_cell_angle_beta   90.00000000
_cell_angle_gamma   90.00000000
_symmetry_Int_Tables_number   1
_chemical_formula_structural   MgTa2O6
_chemical_formula_sum   'Mg2 Ta4 O12'
_cell_volume   219.28157229
_cell_formula_units_Z   2
loop_
 _symmetry_equiv_pos_site_id
 _symmetry_equiv_pos_as_xyz
  1  'x, y, z'
loop_
 _atom_site_type_symbol
 _atom_site_label
 _atom_site_symmetry_multiplicity
 _atom_site_fract_x
 _atom_site_fract_y
 _atom_site_fract_z
 _atom_site_occupancy
  Mg  Mg0  1  0.524565  0.321128  0.500000  1
  Mg  Mg1  1  0.024565  0.678872  0.000000  1
  Ta  Ta2  1  0.509504  0.760639  0.748379  1
  Ta  Ta3  1  0.009504  0.239361  0.751621  1
  Ta  Ta4  1  0.009504  0.239361  0.248379  1
  Ta  Ta5  1  0.509504  0.760639  0.251621  1
  O  O6  1  0.675910  0.068903  0.315259  1
  O  O7  1  0.175910  0.931097  0.184741  1
  O  O8  1  0.781105  0.529904  0.698953  1
  O  O9  1  0.281105  0.470096  0.801047  1
  O  O10  1  0.281105  0.470096  0.198953  1
  O  O11  1  0.781105  0.529904  0.301047  1
  O  O12  1  0.175910  0.931097  0.815259  1
  O  O13  1  0.675910  0.068903  0.684741  1
  O  O14  1  0.137811  0.226123  0.500000  1
  O  O15  1  0.637811  0.773877  0.000000  1
  O  O16  1  0.415337  0.709197  0.500000  1
  O  O17  1  0.915337  0.290803  0.000000  1
