# generated using pymatgen
data_Mg(SbO3)2
_symmetry_space_group_name_H-M   'P 1'
_cell_length_a   5.21551900
_cell_length_b   5.42886800
_cell_length_c   7.57468200
_cell_angle_alpha   90.00000000
_cell_angle_beta   90.00000000
_cell_angle_gamma   90.00000000
_symmetry_Int_Tables_number   1
_chemical_formula_structural   Mg(SbO3)2
_chemical_formula_sum   'Mg2 Sb4 O12'
_cell_volume   214.47230487
_cell_formula_units_Z   2
loop_
 _symmetry_equiv_pos_site_id
 _symmetry_equiv_pos_as_xyz
  1  'x, y, z'
loop_
 _atom_site_type_symbol
 _atom_site_label
 _atom_site_symmetry_multiplicity
 _atom_site_fract_x
 _atom_site_fract_y
 _atom_site_fract_z
 _atom_site_occupancy
  Mg  Mg0  1  0.520138  0.320830  0.500000  1
  Mg  Mg1  1  0.020138  0.679170  0.000000  1
  Sb  Sb2  1  0.502587  0.757767  0.749203  1
  Sb  Sb3  1  0.002587  0.242233  0.750797  1
  Sb  Sb4  1  0.002587  0.242233  0.249203  1
  Sb  Sb5  1  0.502587  0.757767  0.250797  1
  O  O6  1  0.672652  0.072777  0.315874  1
  O  O7  1  0.172652  0.927223  0.184126  1
  O  O8  1  0.801003  0.542823  0.687875  1
  O  O9  1  0.301003  0.457177  0.812125  1
  O  O10  1  0.301003  0.457177  0.187875  1
  O  O11  1  0.801003  0.542823  0.312125  1
  O  O12  1  0.172652  0.927223  0.815874  1
  O  O13  1  0.672652  0.072777  0.684126  1
  O  O14  1  0.140833  0.211599  0.500000  1
  O  O15  1  0.640833  0.788401  0.000000  1
  O  O16  1  0.396811  0.690952  0.500000  1
  O  O17  1  0.896811  0.309048  0.000000  1
