# generated using pymatgen
data_Mg2Ti3O8
_symmetry_space_group_name_H-M   'P 1'
_cell_length_a   5.95508534
_cell_length_b   5.95508534
_cell_length_c   9.50825500
_cell_angle_alpha   90.00000000
_cell_angle_beta   90.00000000
_cell_angle_gamma   119.99999271
_symmetry_Int_Tables_number   1
_chemical_formula_structural   Mg2Ti3O8
_chemical_formula_sum   'Mg4 Ti6 O16'
_cell_volume   292.01654867
_cell_formula_units_Z   2
loop_
 _symmetry_equiv_pos_site_id
 _symmetry_equiv_pos_as_xyz
  1  'x, y, z'
loop_
 _atom_site_type_symbol
 _atom_site_label
 _atom_site_symmetry_multiplicity
 _atom_site_fract_x
 _atom_site_fract_y
 _atom_site_fract_z
 _atom_site_occupancy
  Mg  Mg0  1  0.666667  0.333333  0.022841  1
  Mg  Mg1  1  0.333333  0.666667  0.522841  1
  Mg  Mg2  1  0.666667  0.333333  0.418025  1
  Mg  Mg3  1  0.333333  0.666667  0.918025  1
  Ti  Ti4  1  0.673881  0.836941  0.244181  1
  Ti  Ti5  1  0.836941  0.163059  0.744181  1
  Ti  Ti6  1  0.163059  0.326119  0.244181  1
  Ti  Ti7  1  0.836941  0.673881  0.744181  1
  Ti  Ti8  1  0.326119  0.163059  0.744181  1
  Ti  Ti9  1  0.163059  0.836941  0.244181  1
  O  O10  1  0.836183  0.163817  0.146376  1
  O  O11  1  0.672366  0.836183  0.646376  1
  O  O12  1  0.163817  0.327634  0.646376  1
  O  O13  1  0.836183  0.672366  0.146376  1
  O  O14  1  0.327634  0.163817  0.146376  1
  O  O15  1  0.163817  0.836183  0.646376  1
  O  O16  1  0.518872  0.481128  0.866212  1
  O  O17  1  0.037743  0.518872  0.366212  1
  O  O18  1  0.481128  0.962257  0.366212  1
  O  O19  1  0.518872  0.037743  0.866212  1
  O  O20  1  0.000000  0.000000  0.350980  1
  O  O21  1  0.000000  0.000000  0.850980  1
  O  O22  1  0.333333  0.666667  0.131349  1
  O  O23  1  0.962257  0.481128  0.866212  1
  O  O24  1  0.481128  0.518872  0.366212  1
  O  O25  1  0.666667  0.333333  0.631349  1
