# generated using pymatgen
data_Sr4MgCr2(SO3)2
_symmetry_space_group_name_H-M   'P 1'
_cell_length_a   3.94686200
_cell_length_b   3.94686200
_cell_length_c   15.91827800
_cell_angle_alpha   90.00000000
_cell_angle_beta   90.00000000
_cell_angle_gamma   90.00000000
_symmetry_Int_Tables_number   1
_chemical_formula_structural   Sr4MgCr2(SO3)2
_chemical_formula_sum   'Sr4 Mg1 Cr2 S2 O6'
_cell_volume   247.97047195
_cell_formula_units_Z   1
loop_
 _symmetry_equiv_pos_site_id
 _symmetry_equiv_pos_as_xyz
  1  'x, y, z'
loop_
 _atom_site_type_symbol
 _atom_site_label
 _atom_site_symmetry_multiplicity
 _atom_site_fract_x
 _atom_site_fract_y
 _atom_site_fract_z
 _atom_site_occupancy
  Sr  Sr0  1  0.500000  0.000000  0.191282  1
  Sr  Sr1  1  0.000000  0.500000  0.808718  1
  Sr  Sr2  1  0.500000  0.000000  0.414362  1
  Sr  Sr3  1  0.000000  0.500000  0.585638  1
  Mg  Mg4  1  0.000000  0.000000  0.000000  1
  Cr  Cr5  1  0.000000  0.500000  0.310510  1
  Cr  Cr6  1  0.500000  0.000000  0.689490  1
  S  S7  1  0.000000  0.500000  0.096667  1
  S  S8  1  0.500000  0.000000  0.903333  1
  O  O9  1  0.500000  0.500000  0.292578  1
  O  O10  1  0.000000  0.000000  0.291698  1
  O  O11  1  0.000000  0.000000  0.708302  1
  O  O12  1  0.500000  0.500000  0.707422  1
  O  O13  1  0.000000  0.500000  0.431381  1
  O  O14  1  0.500000  0.000000  0.568619  1
