# generated using pymatgen
data_Re2O7
_symmetry_space_group_name_H-M   'P 1'
_cell_length_a   9.18732559
_cell_length_b   9.18732559
_cell_length_c   6.95144200
_cell_angle_alpha   90.00000000
_cell_angle_beta   90.00000000
_cell_angle_gamma   134.44131557
_symmetry_Int_Tables_number   1
_chemical_formula_structural   Re2O7
_chemical_formula_sum   'Re4 O14'
_cell_volume   418.92072709
_cell_formula_units_Z   2
loop_
 _symmetry_equiv_pos_site_id
 _symmetry_equiv_pos_as_xyz
  1  'x, y, z'
loop_
 _atom_site_type_symbol
 _atom_site_label
 _atom_site_symmetry_multiplicity
 _atom_site_fract_x
 _atom_site_fract_y
 _atom_site_fract_z
 _atom_site_occupancy
  Re  Re0  1  0.123083  0.322734  0.157076  1
  Re  Re1  1  0.876917  0.677266  0.657076  1
  Re  Re2  1  0.677266  0.876917  0.657076  1
  Re  Re3  1  0.322734  0.123083  0.157076  1
  O  O4  1  0.440158  0.077440  0.299927  1
  O  O5  1  0.559842  0.922560  0.799927  1
  O  O6  1  0.922560  0.559842  0.799927  1
  O  O7  1  0.077440  0.440158  0.299927  1
  O  O8  1  0.462152  0.238076  0.947654  1
  O  O9  1  0.537848  0.761924  0.447654  1
  O  O10  1  0.761924  0.537848  0.447654  1
  O  O11  1  0.238076  0.462152  0.947654  1
  O  O12  1  0.083704  0.892756  0.093519  1
  O  O13  1  0.916296  0.107244  0.593519  1
  O  O14  1  0.288044  0.288044  0.267181  1
  O  O15  1  0.711956  0.711956  0.767181  1
  O  O16  1  0.892756  0.083704  0.093519  1
  O  O17  1  0.107244  0.916296  0.593519  1
