# generated using pymatgen
data_Te(WO4)2
_symmetry_space_group_name_H-M   'P 1'
_cell_length_a   5.18635300
_cell_length_b   6.02904159
_cell_length_c   6.26991755
_cell_angle_alpha   112.95078233
_cell_angle_beta   91.35005683
_cell_angle_gamma   104.15927850
_symmetry_Int_Tables_number   1
_chemical_formula_structural   Te(WO4)2
_chemical_formula_sum   'Te1 W2 O8'
_cell_volume   173.48795043
_cell_formula_units_Z   1
loop_
 _symmetry_equiv_pos_site_id
 _symmetry_equiv_pos_as_xyz
  1  'x, y, z'
loop_
 _atom_site_type_symbol
 _atom_site_label
 _atom_site_symmetry_multiplicity
 _atom_site_fract_x
 _atom_site_fract_y
 _atom_site_fract_z
 _atom_site_occupancy
  Te  Te0  1  0.960514  0.041537  0.219313  1
  W  W1  1  0.725975  0.613208  0.410334  1
  W  W2  1  0.222101  0.557694  0.030676  1
  O  O3  1  0.653745  0.813408  0.675229  1
  O  O4  1  0.817702  0.380398  0.487767  1
  O  O5  1  0.611859  0.796611  0.186660  1
  O  O6  1  0.881954  0.405277  0.065899  1
  O  O7  1  0.141987  0.829363  0.977063  1
  O  O8  1  0.276408  0.367446  0.757230  1
  O  O9  1  0.367915  0.424828  0.242597  1
  O  O10  1  0.064795  0.866845  0.402863  1
