# generated using pymatgen
data_Ca2MnWO6
_symmetry_space_group_name_H-M   'P 1'
_cell_length_a   5.62731400
_cell_length_b   5.63497870
_cell_length_c   5.70403964
_cell_angle_alpha   60.62993379
_cell_angle_beta   60.56437263
_cell_angle_gamma   60.04563031
_symmetry_Int_Tables_number   1
_chemical_formula_structural   Ca2MnWO6
_chemical_formula_sum   'Ca2 Mn1 W1 O6'
_cell_volume   129.08458555
_cell_formula_units_Z   1
loop_
 _symmetry_equiv_pos_site_id
 _symmetry_equiv_pos_as_xyz
  1  'x, y, z'
loop_
 _atom_site_type_symbol
 _atom_site_label
 _atom_site_symmetry_multiplicity
 _atom_site_fract_x
 _atom_site_fract_y
 _atom_site_fract_z
 _atom_site_occupancy
  Ca  Ca0  1  0.724825  0.744088  0.811066  1
  Ca  Ca1  1  0.225045  0.240861  0.304084  1
  Mn  Mn2  1  0.494864  0.512699  0.500135  1
  W  W3  1  0.002911  0.018378  0.979452  1
  O  O4  1  0.674928  0.261481  0.199735  1
  O  O5  1  0.339732  0.813736  0.710727  1
  O  O6  1  0.863797  0.693333  0.188168  1
  O  O7  1  0.250370  0.869704  0.199583  1
  O  O8  1  0.793357  0.161217  0.712809  1
  O  O9  1  0.141093  0.353369  0.730422  1
