# generated using pymatgen
data_Mn2HO4
_symmetry_space_group_name_H-M   'P 1'
_cell_length_a   5.47234401
_cell_length_b   5.47234401
_cell_length_c   14.56496679
_cell_angle_alpha   88.96583071
_cell_angle_beta   88.96583071
_cell_angle_gamma   66.71446497
_symmetry_Int_Tables_number   1
_chemical_formula_structural   Mn2HO4
_chemical_formula_sum   'Mn12 H6 O24'
_cell_volume   400.54920529
_cell_formula_units_Z   6
loop_
 _symmetry_equiv_pos_site_id
 _symmetry_equiv_pos_as_xyz
  1  'x, y, z'
loop_
 _atom_site_type_symbol
 _atom_site_label
 _atom_site_symmetry_multiplicity
 _atom_site_fract_x
 _atom_site_fract_y
 _atom_site_fract_z
 _atom_site_occupancy
  Mn  Mn0  1  0.254126  0.504925  0.499046  1
  Mn  Mn1  1  0.747265  0.001856  0.497958  1
  Mn  Mn2  1  0.491394  0.744905  0.150471  1
  Mn  Mn3  1  0.996355  0.236547  0.149820  1
  Mn  Mn4  1  0.511241  0.764132  0.849661  1
  Mn  Mn5  1  0.000894  0.249120  0.843543  1
  Mn  Mn6  1  0.504925  0.254126  0.999046  1
  Mn  Mn7  1  0.001856  0.747265  0.997958  1
  Mn  Mn8  1  0.236547  0.996355  0.649820  1
  Mn  Mn9  1  0.744905  0.491394  0.650471  1
  Mn  Mn10  1  0.249120  0.000894  0.343543  1
  Mn  Mn11  1  0.764132  0.511241  0.349661  1
  H  H12  1  0.310112  0.510262  0.304331  1
  H  H13  1  0.764032  0.056107  0.311419  1
  H  H14  1  0.961635  0.710872  0.186493  1
  H  H15  1  0.510262  0.310112  0.804331  1
  H  H16  1  0.056107  0.764032  0.811419  1
  H  H17  1  0.710872  0.961635  0.686493  1
  O  O18  1  0.362620  0.611898  0.948105  1
  O  O19  1  0.868321  0.113958  0.947899  1
  O  O20  1  0.636750  0.890878  0.051530  1
  O  O21  1  0.147148  0.389499  0.049066  1
  O  O22  1  0.611898  0.362620  0.448105  1
  O  O23  1  0.113958  0.868321  0.447899  1
  O  O24  1  0.389499  0.147148  0.549066  1
  O  O25  1  0.890878  0.636750  0.551530  1
  O  O26  1  0.878778  0.628537  0.885433  1
  O  O27  1  0.386066  0.130530  0.885923  1
  O  O28  1  0.633516  0.384145  0.106583  1
  O  O29  1  0.121242  0.861705  0.112476  1
  O  O30  1  0.628537  0.878778  0.385433  1
  O  O31  1  0.130530  0.386066  0.385923  1
  O  O32  1  0.384145  0.633516  0.606583  1
  O  O33  1  0.861705  0.121242  0.612476  1
  O  O34  1  0.622837  0.408398  0.784001  1
  O  O35  1  0.153363  0.876075  0.789266  1
  O  O36  1  0.856236  0.609521  0.211396  1
  O  O37  1  0.337083  0.087317  0.216907  1
  O  O38  1  0.408398  0.622837  0.284001  1
  O  O39  1  0.876075  0.153363  0.289266  1
  O  O40  1  0.609521  0.856236  0.711396  1
  O  O41  1  0.087317  0.337083  0.716907  1
